<NUMBER OF ZONES> 387
<TOTAL OD FLOW> 1260907.4400005303
<END OF METADATA>

~ Vehicle trip table for new sketch network
~ Generated by CMSC1.5 
~ 50 Evans iterations, 0.0001 relative gap, 0.00001 balancing accuracy
~ Date: June 15, 1999
~ Hillel Bar-Gera


Origin         1
    1 :     273.18;      2 :     347.31;      3 :     390.81;      4 :     204.51;      5 :     373.73;  
    6 :     199.70;      7 :     119.69;      8 :      96.23;      9 :      39.53;     10 :      75.72;  
   11 :      24.02;     12 :      27.71;     13 :      32.98;     14 :     124.31;     15 :      72.66;  
   16 :     124.83;     17 :     311.17;     18 :     157.00;     19 :      32.43;     20 :      13.38;  
   21 :      17.47;     22 :      22.14;     23 :      39.32;     24 :      13.59;     25 :       8.44;  
   26 :      13.43;     27 :       8.38;     28 :      32.99;     29 :      28.07;     30 :       3.65;  
   31 :       3.21;     32 :       5.58;     33 :       3.32;     34 :       2.01;     35 :       5.50;  
   36 :       8.53;     37 :      30.51;     38 :       0.11;     39 :       2.57;     40 :       1.07;  
   41 :       2.76;     42 :       0.20;     43 :       4.48;     44 :       3.78;     45 :       6.22;  
   46 :       4.91;     47 :      24.92;     48 :      14.87;     49 :      26.40;     50 :      17.29;  
   51 :       9.33;     52 :     106.99;     53 :      67.93;     54 :       0.04;     55 :       0.04;  
   56 :       1.09;     57 :       0.03;     58 :       3.16;     59 :       0.46;     60 :       0.74;  
   61 :       1.31;     62 :       4.81;     63 :       4.19;     64 :      21.17;     65 :       4.17;  
   66 :      27.46;     67 :       8.76;     68 :      44.35;     69 :      29.70;     70 :     131.34;  
   71 :      67.65;     72 :     396.95;     73 :     233.74;     74 :     256.33;     75 :     141.39;  
   76 :      41.81;     77 :      23.87;     78 :      33.99;     79 :      32.10;     80 :      18.57;  
   81 :       6.66;     82 :       5.70;     83 :       2.19;     84 :       9.05;     85 :      11.07;  
   86 :       2.23;     87 :       0.77;     88 :       0.52;     89 :       0.25;     90 :       1.27;  
   91 :       2.19;     92 :       0.03;     93 :       0.27;     94 :       0.02;     95 :       0.08;  
   96 :       0.02;     97 :       3.54;     98 :       0.46;     99 :       0.20;    100 :       0.10;  
  101 :       0.22;    102 :       0.04;    103 :       0.02;    104 :       0.03;    105 :       0.01;  
  106 :       1.13;    107 :       0.06;    108 :       0.10;    109 :       0.06;    110 :       0.13;  
  111 :       0.22;    112 :       0.10;    113 :       0.09;    114 :       0.04;    115 :       0.07;  
  116 :       0.03;    117 :       0.01;    118 :       0.04;    119 :       0.01;    120 :       1.03;  
  121 :       0.03;    122 :       0.02;    123 :       0.02;    124 :       0.01;    125 :       0.03;  
  126 :       0.00;    127 :       0.03;    128 :       0.02;    129 :       0.44;    130 :       0.08;  
  131 :       0.37;    132 :       0.18;    133 :       7.90;    134 :       2.58;    135 :       5.17;  
  136 :       1.97;    137 :       0.05;    138 :       0.01;    139 :       0.02;    140 :       0.02;  
  141 :       0.43;    142 :       1.35;    143 :       0.24;    144 :       0.06;    145 :       3.34;  
  146 :       3.28;    147 :       7.65;    148 :       2.00;    149 :       0.12;    150 :       1.02;  
  151 :       0.02;    152 :       1.02;    153 :       1.32;    154 :       1.25;    155 :       0.08;  
  156 :       0.05;    157 :       0.70;    158 :       0.34;    159 :       1.34;    160 :       0.11;  
  161 :       0.10;    162 :       0.00;    163 :       0.00;    164 :       0.02;    165 :       0.00;  
  166 :       0.06;    167 :       0.02;    168 :       0.00;    169 :       0.00;    170 :       0.11;  
  171 :       0.01;    172 :       0.03;    173 :       0.00;    174 :       0.00;    175 :       0.00;  
  176 :       0.00;    177 :       0.00;    178 :       0.02;    179 :       0.01;    180 :       0.00;  
  181 :       0.00;    182 :       0.02;    183 :       0.00;    184 :       0.01;    185 :       0.00;  
  186 :       0.00;    187 :       0.00;    188 :       1.03;    189 :       0.02;    190 :       0.01;  
  191 :       0.01;    192 :       0.00;    193 :       0.00;    194 :       1.00;    195 :       0.00;  
  196 :       0.00;    197 :       0.00;    198 :       0.00;    199 :       0.01;    200 :       0.00;  
  201 :       0.00;    202 :       0.00;    203 :       0.01;    204 :       0.01;    205 :       0.03;  
  206 :       0.00;    207 :       0.06;    208 :       0.02;    209 :       1.04;    210 :       0.20;  
  211 :       0.01;    212 :       0.01;    213 :       0.00;    214 :       0.02;    215 :       0.00;  
  216 :       0.18;    217 :       0.04;    218 :       0.27;    219 :       0.26;    220 :       1.27;  
  221 :       0.49;    222 :       0.04;    223 :       0.05;    224 :       0.04;    225 :       0.12;  
  226 :       0.09;    227 :       1.42;    228 :       1.29;    229 :       1.67;    230 :       0.59;  
  231 :       1.83;    232 :       9.24;    233 :       4.77;    234 :       0.00;    235 :       0.00;  
  236 :       0.00;    237 :       0.00;    238 :       0.00;    239 :       0.00;    240 :       0.00;  
  241 :       0.00;    242 :       0.00;    243 :       0.00;    244 :       0.00;    245 :       0.00;  
  246 :       0.00;    247 :       0.00;    248 :       0.00;    249 :       1.00;    250 :       0.00;  
  251 :       0.00;    252 :       0.00;    253 :       0.00;    254 :       0.00;    255 :       0.00;  
  256 :       1.00;    257 :       0.00;    258 :       0.01;    259 :       0.01;    260 :       0.01;  
  261 :       0.00;    262 :       0.01;    263 :       0.00;    264 :       0.00;    265 :       0.00;  
  266 :       0.00;    267 :       0.04;    268 :       0.01;    269 :       0.02;    270 :       0.01;  
  271 :       0.00;    272 :       0.00;    273 :       0.00;    274 :       0.00;    275 :       0.01;  
  276 :       0.00;    277 :       0.00;    278 :       0.00;    279 :       0.01;    280 :       0.00;  
  281 :       0.00;    282 :       0.00;    283 :       0.00;    284 :       0.00;    285 :       0.00;  
  286 :       0.00;    287 :       0.01;    288 :       0.01;    289 :       0.00;    290 :       0.00;  
  291 :       0.00;    292 :       0.00;    293 :       0.00;    294 :       0.00;    295 :       0.01;  
  296 :       0.00;    297 :       0.00;    298 :       0.00;    299 :       0.00;    300 :       0.00;  
  301 :       0.00;    302 :       0.00;    303 :       0.01;    304 :       0.00;    305 :       0.00;  
  306 :       0.00;    307 :       0.00;    308 :       0.00;    309 :       0.00;    310 :       0.00;  
  311 :       0.00;    312 :       0.00;    313 :       0.00;    314 :       0.00;    315 :       0.00;  
  316 :       0.00;    317 :       0.00;    318 :       0.00;    319 :       0.00;    320 :       0.00;  
  321 :       0.00;    322 :       0.00;    323 :       0.00;    324 :       0.00;    325 :       0.00;  
  326 :       0.00;    327 :       0.00;    328 :       0.00;    329 :       0.00;    330 :       0.00;  
  331 :       0.00;    332 :       0.00;    333 :       0.00;    334 :       0.00;    335 :       0.00;  
  336 :       0.00;    337 :       0.00;    338 :       0.00;    339 :       0.00;    340 :       0.00;  
  341 :       0.00;    342 :       0.00;    343 :       0.00;    344 :       0.00;    345 :       0.00;  
  346 :       0.00;    347 :       0.00;    348 :       0.00;    349 :       0.00;    350 :       0.00;  
  351 :       0.00;    352 :       0.00;    353 :       0.00;    354 :       0.00;    355 :       0.00;  
  356 :       0.57;    357 :       0.14;    358 :       0.01;    359 :       0.01;    360 :       0.01;  
  361 :       0.00;    362 :       1.00;    363 :       0.00;    364 :       0.00;    365 :       0.00;  
  366 :       0.00;    367 :       0.00;    368 :       0.00;    369 :       0.00;    370 :       0.00;  
  371 :       0.00;    372 :       0.00;    373 :       0.00;    374 :       0.00;    375 :       0.00;  
  376 :       0.01;    378 :       1.00;    380 :       1.00;    387 :      24.00;  
Origin         2
    1 :     309.92;      2 :     406.52;      3 :     285.29;      4 :     376.17;      5 :     357.84;  
    6 :     380.31;      7 :     226.02;      8 :     188.72;      9 :      80.84;     10 :     145.40;  
   11 :      44.49;     12 :      53.06;     13 :      47.33;     14 :     231.95;     15 :      96.14;  
   16 :     122.81;     17 :     293.81;     18 :     151.95;     19 :      30.39;     20 :      22.08;  
   21 :      16.40;     22 :      17.70;     23 :      41.30;     24 :      15.07;     25 :       9.21;  
   26 :      15.01;     27 :       8.06;     28 :      34.28;     29 :      27.21;     30 :       4.59;  
   31 :       5.09;     32 :       4.53;     33 :       1.29;     34 :       4.92;     35 :       4.36;  
   36 :       8.48;     37 :      59.98;     38 :       1.22;     39 :       1.96;     40 :       0.14;  
   41 :       7.97;     42 :       0.39;     43 :       9.86;     44 :       4.00;     45 :      10.81;  
   46 :       7.91;     47 :      41.85;     48 :      22.63;     49 :      39.99;     50 :      27.04;  
   51 :      14.45;     52 :     102.54;     53 :      95.08;     54 :       0.08;     55 :       0.09;  
   56 :       0.17;     57 :       1.06;     58 :      10.26;     59 :       1.91;     60 :       1.45;  
   61 :       0.60;     62 :       6.28;     63 :       8.31;     64 :      46.74;     65 :       4.26;  
   66 :      49.29;     67 :      19.56;     68 :      85.35;     69 :      57.55;     70 :     222.50;  
   71 :     121.59;     72 :     737.68;     73 :     425.83;     74 :     191.45;     75 :     109.11;  
   76 :      75.72;     77 :      43.19;     78 :      62.02;     79 :      67.21;     80 :      32.67;  
   81 :      16.12;     82 :      11.27;     83 :       3.33;     84 :      17.89;     85 :      18.50;  
   86 :       4.00;     87 :       1.52;     88 :       1.47;     89 :       0.28;     90 :       1.21;  
   91 :       3.08;     92 :       0.04;     93 :       0.25;     94 :       0.03;     95 :       0.07;  
   96 :       0.02;     97 :       1.49;     98 :       1.41;     99 :       0.18;    100 :       0.09;  
  101 :       1.20;    102 :       0.04;    103 :       0.03;    104 :       0.03;    105 :       0.01;  
  106 :       1.12;    107 :       1.05;    108 :       0.09;    109 :       0.06;    110 :       1.12;  
  111 :       0.20;    112 :       0.09;    113 :       1.08;    114 :       0.03;    115 :       0.06;  
  116 :       0.03;    117 :       0.01;    118 :       0.03;    119 :       0.01;    120 :       0.02;  
  121 :       0.02;    122 :       1.02;    123 :       2.02;    124 :       0.01;    125 :       0.05;  
  126 :       0.01;    127 :       0.06;    128 :       0.04;    129 :       0.87;    130 :       0.17;  
  131 :       0.73;    132 :       2.36;    133 :      11.62;    134 :       5.10;    135 :      10.20;  
  136 :       7.88;    137 :       0.09;    138 :       2.03;    139 :       0.04;    140 :       0.03;  
  141 :       0.85;    142 :       1.68;    143 :       0.47;    144 :       0.12;    145 :       7.57;  
  146 :       3.52;    147 :      12.15;    148 :       5.94;    149 :       1.24;    150 :       0.03;  
  151 :       0.03;    152 :       0.03;    153 :       0.63;    154 :       1.49;    155 :       0.15;  
  156 :       0.09;    157 :       2.37;    158 :       0.67;    159 :       1.52;    160 :       0.20;  
  161 :       0.15;    162 :       0.00;    163 :       0.00;    164 :       0.04;    165 :       0.00;  
  166 :       0.13;    167 :       0.03;    168 :       0.00;    169 :       0.00;    170 :       0.22;  
  171 :       0.02;    172 :       2.06;    173 :       0.01;    174 :       0.00;    175 :       0.00;  
  176 :       0.01;    177 :       0.00;    178 :       0.04;    179 :       0.01;    180 :       0.00;  
  181 :       0.00;    182 :       0.03;    183 :       0.01;    184 :       0.01;    185 :       0.01;  
  186 :       0.00;    187 :       0.00;    188 :       1.05;    189 :       1.04;    190 :       1.03;  
  191 :       0.02;    192 :       0.00;    193 :       0.00;    194 :       0.00;    195 :       0.00;  
  196 :       0.00;    197 :       0.00;    198 :       0.01;    199 :       0.02;    200 :       1.00;  
  201 :       0.01;    202 :       0.00;    203 :       0.02;    204 :       0.01;    205 :       0.04;  
  206 :       0.01;    207 :       0.10;    208 :       0.03;    209 :       1.07;    210 :       1.33;  
  211 :       0.02;    212 :       0.01;    213 :       0.00;    214 :       0.04;    215 :       0.00;  
  216 :       0.30;    217 :       1.07;    218 :       0.45;    219 :       0.43;    220 :       0.46;  
  221 :       2.82;    222 :       1.07;    223 :       0.08;    224 :       0.07;    225 :       0.21;  
  226 :       0.16;    227 :       0.70;    228 :       0.49;    229 :       2.82;    230 :       2.00;  
  231 :       3.08;    232 :      14.18;    233 :      10.02;    234 :       0.00;    235 :       0.00;  
  236 :       0.00;    237 :       0.00;    238 :       0.00;    239 :       0.00;    240 :       0.00;  
  241 :       0.00;    242 :       0.00;    243 :       0.00;    244 :       1.00;    245 :       0.00;  
  246 :       0.00;    247 :       0.00;    248 :       0.00;    249 :       0.00;    250 :       0.00;  
  251 :       0.00;    252 :       0.00;    253 :       0.00;    254 :       0.00;    255 :       0.00;  
  256 :       0.00;    257 :       0.00;    258 :       0.01;    259 :       1.01;    260 :       0.01;  
  261 :       0.00;    262 :       0.01;    263 :       0.00;    264 :       0.00;    265 :       0.00;  
  266 :       0.00;    267 :       0.06;    268 :       0.02;    269 :       0.02;    270 :       0.01;  
  271 :       0.00;    272 :       0.00;    273 :       0.01;    274 :       0.00;    275 :       0.01;  
  276 :       0.00;    277 :       0.01;    278 :       0.00;    279 :       0.01;    280 :       0.00;  
  281 :       0.00;    282 :       0.00;    283 :       0.00;    284 :       0.00;    285 :       0.00;  
  286 :       0.00;    287 :       0.01;    288 :       0.01;    289 :       0.00;    290 :       1.00;  
  291 :       0.00;    292 :       0.00;    293 :       0.00;    294 :       0.00;    295 :       0.01;  
  296 :       0.00;    297 :       0.00;    298 :       0.00;    299 :       0.00;    300 :       0.00;  
  301 :       0.00;    302 :       0.00;    303 :       0.01;    304 :       0.00;    305 :       0.00;  
  306 :       0.00;    307 :       0.00;    308 :       0.00;    309 :       0.00;    310 :       0.00;  
  311 :       0.00;    312 :       0.00;    313 :       0.00;    314 :       0.00;    315 :       0.00;  
  316 :       0.00;    317 :       0.00;    318 :       0.00;    319 :       0.00;    320 :       0.01;  
  321 :       0.00;    322 :       0.00;    323 :       0.00;    324 :       0.00;    325 :       0.00;  
  326 :       0.00;    327 :       0.00;    328 :       0.00;    329 :       0.00;    330 :       0.00;  
  331 :       0.00;    332 :       0.00;    333 :       0.00;    334 :       0.00;    335 :       0.00;  
  336 :       0.00;    337 :       0.00;    338 :       0.00;    339 :       0.00;    340 :       0.00;  
  341 :       0.00;    342 :       0.00;    343 :       0.00;    344 :       0.00;    345 :       0.00;  
  346 :       0.00;    347 :       0.00;    348 :       0.00;    349 :       0.00;    350 :       0.00;  
  351 :       0.00;    352 :       0.00;    353 :       0.00;    354 :       0.00;    355 :       0.00;  
  356 :       0.51;    357 :       0.13;    358 :       0.01;    359 :       0.01;    360 :       0.01;  
  361 :       0.00;    362 :       0.00;    363 :       0.00;    364 :       0.00;    365 :       0.00;  
  366 :       0.00;    367 :       0.00;    368 :       0.00;    369 :       0.00;    370 :       0.00;  
  371 :       0.00;    372 :       0.00;    373 :       0.00;    374 :       0.00;    375 :       0.00;  
  376 :       0.02;  
Origin         3
    1 :     344.35;      2 :     283.96;      3 :     951.10;      4 :     785.32;      5 :    1434.07;  
    6 :     205.10;      7 :     419.90;      8 :     108.55;      9 :      63.84;     10 :     260.09;  
   11 :      77.65;     12 :     107.97;     13 :     111.07;     14 :     471.90;     15 :     268.27;  
   16 :     474.02;     17 :    1200.94;     18 :     585.87;     19 :     112.76;     20 :      50.19;  
   21 :      63.36;     22 :      79.89;     23 :     147.34;     24 :      43.13;     25 :      24.64;  
   26 :      50.52;     27 :      35.35;     28 :     118.17;     29 :      93.88;     30 :      10.57;  
   31 :      12.77;     32 :      10.30;     33 :       9.26;     34 :      20.01;     35 :      18.94;  
   36 :      20.08;     37 :      35.54;     38 :       0.13;     39 :       2.54;     40 :       0.08;  
   41 :       6.37;     42 :       0.23;     43 :       5.38;     44 :       1.23;     45 :       3.58;  
   46 :       6.23;     47 :      18.95;     48 :      17.76;     49 :      21.60;     50 :      15.74;  
   51 :       7.33;     52 :      78.87;     53 :      45.12;     54 :       0.05;     55 :       0.05;  
   56 :       0.10;     57 :       0.04;     58 :       8.54;     59 :       0.54;     60 :       0.72;  
   61 :       2.30;     62 :       7.83;     63 :       6.57;     64 :      30.75;     65 :       3.11;  
   66 :      22.85;     67 :       8.40;     68 :      36.70;     69 :      34.54;     70 :      93.01;  
   71 :      51.29;     72 :     335.19;     73 :     177.23;     74 :     215.03;     75 :     124.10;  
   76 :      68.58;     77 :      34.57;     78 :      55.12;     79 :      34.60;     80 :      30.53;  
   81 :      23.23;     82 :      17.56;     83 :       2.83;     84 :      30.14;     85 :      44.87;  
   86 :       9.85;     87 :       4.78;     88 :       2.04;     89 :       1.97;     90 :       5.01;  
   91 :       7.70;     92 :       0.11;     93 :       3.07;     94 :       0.10;     95 :       0.30;  
   96 :       0.06;     97 :       6.13;     98 :       3.81;     99 :       0.80;    100 :       1.39;  
  101 :       0.87;    102 :       0.16;    103 :       0.09;    104 :       0.11;    105 :       0.03;  
  106 :       1.53;    107 :       0.23;    108 :       0.38;    109 :       1.25;    110 :       1.52;  
  111 :       0.87;    112 :       0.38;    113 :       2.34;    114 :       0.15;    115 :       1.26;  
  116 :       1.13;    117 :       0.03;    118 :       0.14;    119 :       0.04;    120 :       0.10;  
  121 :       0.10;    122 :       1.08;    123 :       0.09;    124 :       0.05;    125 :       0.03;  
  126 :       0.00;    127 :       0.03;    128 :       0.02;    129 :       3.43;    130 :       0.08;  
  131 :       0.44;    132 :       1.21;    133 :       9.77;    134 :       2.54;    135 :       7.36;  
  136 :       7.31;    137 :       2.06;    138 :       1.02;    139 :       0.03;    140 :       0.02;  
  141 :       2.51;    142 :       1.41;    143 :       0.33;    144 :       0.08;    145 :       5.92;  
  146 :       1.50;    147 :       9.38;    148 :       5.75;    149 :       3.16;    150 :       0.02;  
  151 :       0.03;    152 :       0.03;    153 :       0.44;    154 :       0.34;    155 :       1.14;  
  156 :       0.08;    157 :       3.36;    158 :       1.52;    159 :       1.34;    160 :       0.43;  
  161 :       0.41;    162 :       0.00;    163 :       0.00;    164 :       0.02;    165 :       0.00;  
  166 :       0.08;    167 :       0.02;    168 :       0.00;    169 :       0.00;    170 :       1.13;  
  171 :       0.01;    172 :       0.04;    173 :       0.00;    174 :       0.00;    175 :       0.00;  
  176 :       0.00;    177 :       0.00;    178 :       0.02;    179 :       0.01;    180 :       0.00;  
  181 :       0.00;    182 :       0.02;    183 :       0.00;    184 :       0.01;    185 :       0.00;  
  186 :       0.00;    187 :       0.00;    188 :       1.04;    189 :       1.03;    190 :       0.02;  
  191 :       0.02;    192 :       0.00;    193 :       0.00;    194 :       0.00;    195 :       0.00;  
  196 :       0.00;    197 :       0.00;    198 :       0.00;    199 :       0.01;    200 :       0.00;  
  201 :       0.00;    202 :       0.00;    203 :       0.01;    204 :       0.00;    205 :       0.02;  
  206 :       0.00;    207 :       1.04;    208 :       0.01;    209 :       0.03;    210 :       2.14;  
  211 :       0.01;    212 :       0.00;    213 :       0.00;    214 :       0.02;    215 :       0.00;  
  216 :       0.12;    217 :       1.03;    218 :       1.18;    219 :       2.18;    220 :       1.19;  
  221 :       0.33;    222 :       0.03;    223 :       0.03;    224 :       0.03;    225 :       1.09;  
  226 :       0.06;    227 :       0.29;    228 :       0.20;    229 :       1.15;    230 :       0.41;  
  231 :       1.25;    232 :       5.95;    233 :       5.26;    234 :       0.00;    235 :       0.00;  
  236 :       0.00;    237 :       1.00;    238 :       0.00;    239 :       0.00;    240 :       0.00;  
  241 :       0.00;    242 :       0.00;    243 :       0.00;    244 :       1.00;    245 :       0.00;  
  246 :       0.00;    247 :       2.00;    248 :       0.00;    249 :       0.00;    250 :       0.00;  
  251 :       0.00;    252 :       0.00;    253 :       2.00;    254 :       0.00;    255 :       0.00;  
  256 :       0.00;    257 :       0.00;    258 :       0.00;    259 :       0.01;    260 :       0.01;  
  261 :       0.00;    262 :       0.00;    263 :       0.01;    264 :       0.00;    265 :       0.00;  
  266 :       0.00;    267 :       0.17;    268 :       0.05;    269 :       0.07;    270 :       0.03;  
  271 :       0.01;    272 :       0.01;    273 :       0.02;    274 :       0.00;    275 :       0.03;  
  276 :       0.01;    277 :       0.02;    278 :       0.01;    279 :       0.03;    280 :       1.01;  
  281 :       0.00;    282 :       0.00;    283 :       0.01;    284 :       0.00;    285 :       0.00;  
  286 :       0.00;    287 :       0.03;    288 :       0.03;    289 :       0.00;    290 :       0.00;  
  291 :       0.01;    292 :       0.00;    293 :       0.00;    294 :       0.00;    295 :       0.03;  
  296 :       0.02;    297 :       0.02;    298 :       0.01;    299 :       0.00;    300 :       0.00;  
  301 :       0.00;    302 :       0.00;    303 :       0.03;    304 :       0.01;    305 :       0.01;  
  306 :       0.00;    307 :       0.00;    308 :       0.00;    309 :       1.00;    310 :       0.00;  
  311 :       0.00;    312 :       0.00;    313 :       0.00;    314 :       0.00;    315 :       0.00;  
  316 :       0.00;    317 :       0.00;    318 :       0.00;    319 :       0.00;    320 :       0.02;  
  321 :       0.00;    322 :       0.00;    323 :       0.00;    324 :       0.00;    325 :       0.00;  
  326 :       0.00;    327 :       0.00;    328 :       0.00;    329 :       0.00;    330 :       0.00;  
  331 :       0.00;    332 :       0.00;    333 :       0.00;    334 :       0.00;    335 :       0.00;  
  336 :       0.00;    337 :       0.00;    338 :       0.00;    339 :       0.00;    340 :       0.00;  
  341 :       0.00;    342 :       0.00;    343 :       0.00;    344 :       0.00;    345 :       0.00;  
  346 :       0.01;    347 :       0.00;    348 :       0.00;    349 :       0.00;    350 :       0.00;  
  351 :       0.00;    352 :       0.00;    353 :       0.00;    354 :       0.00;    355 :       0.00;  
  356 :       2.24;    357 :       0.56;    358 :       0.06;    359 :       0.06;    360 :       0.05;  
  361 :       0.00;    362 :       0.01;    363 :       0.00;    364 :       0.00;    365 :       0.00;  
  366 :       0.00;    367 :       0.00;    368 :       0.00;    369 :       0.00;    370 :       0.00;  
  371 :       0.00;    372 :       0.00;    373 :       0.00;    374 :       0.00;    375 :       1.00;  
  376 :       1.01;    377 :       1.00;    381 :       4.00;    382 :       4.00;    383 :       1.00;  
  387 :      16.00;  
Origin         4
    1 :     181.39;      2 :     339.07;      3 :     760.50;      4 :     670.03;      5 :     994.14;  
    6 :     276.14;      7 :     570.64;      8 :     140.65;      9 :      88.68;     10 :     362.74;  
   11 :     105.63;     12 :     148.17;     13 :     132.60;     14 :     655.87;     15 :     266.01;  
   16 :     354.41;     17 :     815.46;     18 :     413.57;     19 :      80.63;     20 :      51.44;  
   21 :      46.37;     22 :      52.01;     23 :     110.36;     24 :      35.79;     25 :      19.45;  
   26 :      38.71;     27 :      25.92;     28 :      83.55;     29 :      63.97;     30 :      10.72;  
   31 :      10.19;     32 :      10.53;     33 :       3.84;     34 :      15.68;     35 :      17.97;  
   36 :      13.39;     37 :      50.70;     38 :       0.19;     39 :       2.77;     40 :       0.12;  
   41 :      14.95;     42 :       0.33;     43 :       7.94;     44 :       3.69;     45 :       7.63;  
   46 :       4.17;     47 :      19.42;     48 :      19.53;     49 :      26.21;     50 :      16.99;  
   51 :       6.25;     52 :      50.22;     53 :      43.52;     54 :       1.07;     55 :       0.07;  
   56 :       0.14;     57 :       0.05;     58 :      11.62;     59 :       0.77;     60 :       2.03;  
   61 :       2.43;     62 :       4.03;     63 :       9.67;     64 :      46.47;     65 :       5.02;  
   66 :      31.18;     67 :      14.70;     68 :      49.09;     69 :      41.88;     70 :     107.86;  
   71 :      67.05;     72 :     382.34;     73 :     245.78;     74 :     111.61;     75 :      66.73;  
   76 :      76.64;     77 :      48.64;     78 :      71.82;     79 :      48.52;     80 :      43.26;  
   81 :      25.73;     82 :      19.29;     83 :       5.34;     84 :      39.57;     85 :      53.34;  
   86 :       8.41;     87 :       3.96;     88 :       5.37;     89 :       0.65;     90 :       5.52;  
   91 :       6.14;     92 :       0.08;     93 :       2.72;     94 :       0.07;     95 :       0.20;  
   96 :       0.04;     97 :       5.42;     98 :       3.21;     99 :       1.54;    100 :       0.26;  
  101 :       0.58;    102 :       0.11;    103 :       0.06;    104 :       0.08;    105 :       0.02;  
  106 :       0.36;    107 :       1.16;    108 :       0.26;    109 :       2.17;    110 :       2.35;  
  111 :       2.58;    112 :       1.26;    113 :       1.23;    114 :       0.10;    115 :       1.17;  
  116 :       0.08;    117 :       0.02;    118 :       0.09;    119 :       0.03;    120 :       0.07;  
  121 :       1.07;    122 :       1.05;    123 :       1.06;    124 :       0.03;    125 :       0.04;  
  126 :       0.00;    127 :       0.05;    128 :       1.03;    129 :       1.61;    130 :       0.12;  
  131 :       1.62;    132 :       1.30;    133 :      15.81;    134 :       2.20;    135 :      12.22;  
  136 :       9.30;    137 :       1.08;    138 :       2.02;    139 :       0.03;    140 :       0.03;  
  141 :       0.72;    142 :       0.58;    143 :       1.40;    144 :       2.10;    145 :       6.59;  
  146 :       2.15;    147 :      13.80;    148 :       8.36;    149 :       2.20;    150 :       0.03;  
  151 :       0.03;    152 :       0.03;    153 :       2.53;    154 :       0.42;    155 :       0.13;  
  156 :       1.08;    157 :       3.17;    158 :       0.57;    159 :       3.89;    160 :       0.29;  
  161 :       1.28;    162 :       0.00;    163 :       0.00;    164 :       0.03;    165 :       0.00;  
  166 :       0.11;    167 :       0.03;    168 :       0.00;    169 :       0.00;    170 :       1.19;  
  171 :       0.01;    172 :       0.05;    173 :       0.00;    174 :       0.00;    175 :       0.00;  
  176 :       0.01;    177 :       0.00;    178 :       0.04;    179 :       0.01;    180 :       0.00;  
  181 :       0.00;    182 :       0.03;    183 :       0.00;    184 :       0.01;    185 :       0.01;  
  186 :       0.00;    187 :       0.00;    188 :       2.04;    189 :       0.03;    190 :       0.02;  
  191 :       0.02;    192 :       0.00;    193 :       0.00;    194 :       0.00;    195 :       0.00;  
  196 :       0.00;    197 :       0.00;    198 :       0.00;    199 :       1.01;    200 :       0.00;  
  201 :       0.00;    202 :       0.00;    203 :       1.01;    204 :       0.00;    205 :       0.02;  
  206 :       0.00;    207 :       1.05;    208 :       1.01;    209 :       0.03;    210 :       2.15;  
  211 :       0.01;    212 :       0.01;    213 :       1.00;    214 :       0.02;    215 :       0.00;  
  216 :       0.13;    217 :       0.03;    218 :       0.20;    219 :       1.20;    220 :       1.21;  
  221 :       1.37;    222 :       1.04;    223 :       0.04;    224 :       0.03;    225 :       0.10;  
  226 :       0.08;    227 :       0.32;    228 :       0.22;    229 :       2.28;    230 :       1.45;  
  231 :       2.39;    232 :       8.51;    233 :       4.63;    234 :       0.00;    235 :       0.00;  
  236 :       1.00;    237 :       0.00;    238 :       0.00;    239 :       1.00;    240 :       0.00;  
  241 :       0.00;    242 :       0.00;    243 :       0.00;    244 :       0.00;    245 :       0.00;  
  246 :       0.00;    247 :       1.00;    248 :       0.00;    249 :       0.00;    250 :       0.00;  
  251 :       0.00;    252 :       0.00;    253 :       1.00;    254 :       0.00;    255 :       0.00;  
  256 :       0.00;    257 :       1.00;    258 :       0.01;    259 :       0.01;    260 :       0.01;  