<NUMBER OF ZONES> 74
<TOTAL OD FLOW> 65576.37543099989
<END OF METADATA>


Origin  1  
1 :      0.0;    2 :      63.802849;    
3 :      471.819480;    4 :      0.000000;    5 :      0.000000;    
6 :      0.000000;    7 :      918.488499;    8 :      0.000000;    
9 :      0.000000;    10 :      0.000000;    11 :      0.000000;    
12 :      0.000000;    13 :      0.000000;    14 :      0.000000;    
15 :      0.000000;    16 :      0.000000;    17 :      0.000000;    
18 :      0.000000;    19 :      0.000000;    20 :      0.000000;    
21 :      28.772957;    22 :      31.681824;    23 :      0.000000;    
24 :      0.000000;    25 :      0.000000;    26 :      0.000000;    
27 :      0.000000;    28 :      0.000000;    29 :      29.681628;    
30 :      8.606275;    31 :      8.606275;    32 :      8.606275;    
33 :      8.606275;    34 :      0.000000;    35 :      0.000000;    
36 :      11.722161;    37 :      20.428002;    38 :      20.428002;    
39 :      20.428002;    40 :      20.428002;    41 :      0.000000;    
42 :      23.394305;    43 :      0.000000;    44 :      0.000000;    
45 :      0.000000;    46 :      0.000000;    47 :      0.000000;    
48 :      14.575279;    49 :      8.505481;    50 :      9.077854;    
51 :      9.077854;    52 :      4.484028;    53 :      4.452338;    
54 :      1.875118;    55 :      0.000000;    56 :      0.000000;    
57 :      0.000000;    58 :      0.000000;    59 :      2.023540;    
60 :      2.023540;    61 :      1.880171;    62 :      1.936760;    
63 :      1.936760;    64 :      1.936760;    65 :      1.936760;    
66 :      1.936760;    67 :      1.948398;    68 :      0.000000;    
69 :      1.965538;    70 :      0.000000;    71 :      0.000000;    
72 :      0.000000;    73 :      0.000000;    74 :      0.000000;    


Origin  2  
2 :      0.0;    1 :      44.610847;    3 :      118.652210;    4 :      0.000000;    
5 :      0.000000;    6 :      381.411877;    7 :      0.000000;    
8 :      0.000000;    9 :      0.000000;    10 :      167.195351;    
11 :      0.000000;    12 :      0.000000;    13 :      104.283571;    
14 :      104.283571;    15 :      0.000000;    16 :      90.951624;    
17 :      90.951624;    18 :      90.951624;    19 :      0.000000;    
20 :      0.000000;    21 :      0.000000;    22 :      0.000000;    
23 :      0.000000;    24 :      0.000000;    25 :      0.000000;    
26 :      0.000000;    27 :      0.000000;    28 :      0.000000;    
29 :      0.000000;    30 :      0.000000;    31 :      0.000000;    
32 :      0.000000;    33 :      0.000000;    34 :      0.000000;    
35 :      0.000000;    36 :      0.000000;    37 :      0.000000;    
38 :      0.000000;    39 :      0.000000;    40 :      0.000000;    
41 :      0.000000;    42 :      0.000000;    43 :      0.000000;    
44 :      0.000000;    45 :      0.000000;    46 :      0.000000;    
47 :      0.000000;    48 :      0.000000;    49 :      0.000000;    
50 :      0.000000;    51 :      0.000000;    52 :      0.000000;    
53 :      0.000000;    54 :      0.000000;    55 :      0.000000;    
56 :      0.000000;    57 :      0.000000;    58 :      0.000000;    
59 :      0.000000;    60 :      0.000000;    61 :      0.000000;    
62 :      0.000000;    63 :      0.000000;    64 :      0.000000;    
65 :      0.000000;    66 :      0.000000;    67 :      0.000000;    
68 :      0.000000;    69 :      0.000000;    70 :      0.000000;    
71 :      0.000000;    72 :      0.000000;    73 :      0.000000;    
74 :      0.000000;    

Origin  3  
3 :      0.0;    1 :      67.639683;    2 :      72.070490;    
4 :      0.000000;    5 :      0.000000;    6 :      0.000000;    
7 :      0.000000;    8 :      0.000000;    9 :      0.000000;    
10 :      0.000000;    11 :      0.000000;    12 :      134.776233;    
13 :      0.000000;    14 :      0.000000;    15 :      0.000000;    
16 :      0.000000;    17 :      0.000000;    18 :      0.000000;    
19 :      0.000000;    20 :      0.000000;    21 :      0.000000;    
22 :      0.000000;    23 :      0.000000;    24 :      0.000000;    
25 :      0.000000;    26 :      0.000000;    27 :      0.000000;    
28 :      0.000000;    29 :      0.000000;    30 :      0.000000;    
31 :      0.000000;    32 :      0.000000;    33 :      0.000000;    
34 :      0.000000;    35 :      0.000000;    36 :      0.000000;    
37 :      0.000000;    38 :      0.000000;    39 :      0.000000;    
40 :      0.000000;    41 :      0.000000;    42 :      0.000000;    
43 :      0.000000;    44 :      0.000000;    45 :      0.000000;    
46 :      0.000000;    47 :      0.000000;    48 :      0.000000;    
49 :      0.000000;    50 :      0.000000;    51 :      0.000000;    
52 :      0.000000;    53 :      0.000000;    54 :      0.000000;    
55 :      0.000000;    56 :      0.000000;    57 :      0.000000;    
58 :      0.000000;    59 :      0.000000;    60 :      0.000000;    
61 :      0.000000;    62 :      0.000000;    63 :      0.000000;    
64 :      0.000000;    65 :      0.000000;    66 :      0.000000;    
67 :      0.000000;    68 :      0.000000;    69 :      0.000000;    
70 :      0.000000;    71 :      0.000000;    72 :      0.000000;    
73 :      0.000000;    74 :      0.000000;    

Origin  4  
4 :      0.0;    1 :      0.000000;    
2 :      0.000000;    3 :      0.000000;    5 :      0.000000;    
6 :      0.000000;    7 :      0.000000;    8 :      0.000000;    
9 :      0.000000;    10 :      0.000000;    11 :      0.000000;    
12 :      0.000000;    13 :      0.000000;    14 :      0.000000;    
15 :      0.000000;    16 :      0.000000;    17 :      0.000000;    
18 :      0.000000;    19 :      0.000000;    20 :      0.000000;    
21 :      0.000000;    22 :      0.000000;    23 :      0.000000;    
24 :      0.000000;    25 :      0.000000;    26 :      0.000000;    
27 :      0.000000;    28 :      0.000000;    29 :      0.000000;    
30 :      0.000000;    31 :      0.000000;    32 :      0.000000;    
33 :      0.000000;    34 :      0.000000;    35 :      0.000000;    
36 :      0.000000;    37 :      0.000000;    38 :      0.000000;    
39 :      0.000000;    40 :      0.000000;    41 :      0.000000;    
42 :      0.000000;    43 :      0.000000;    44 :      0.000000;    
45 :      0.000000;    46 :      0.000000;    47 :      0.000000;    
48 :      0.000000;    49 :      0.000000;    50 :      0.000000;    
51 :      0.000000;    52 :      0.000000;    53 :      0.000000;    
54 :      0.000000;    55 :      0.000000;    56 :      0.000000;    
57 :      0.000000;    58 :      0.000000;    59 :      0.000000;    
60 :      0.000000;    61 :      0.000000;    62 :      0.000000;    
63 :      0.000000;    64 :      0.000000;    65 :      0.000000;    
66 :      0.000000;    67 :      0.000000;    68 :      0.000000;    
69 :      0.000000;    70 :      0.000000;    71 :      0.000000;    
72 :      0.000000;    73 :      0.000000;    74 :      0.000000;    


Origin  5  
5 :      0.0;    1 :      0.000000;    2 :      0.000000;    3 :      0.000000;    
4 :      0.000000;    6 :      0.000000;    7 :      0.000000;    
8 :      0.000000;    9 :      0.000000;    10 :      0.000000;    
11 :      0.000000;    12 :      0.000000;    13 :      0.000000;    
14 :      0.000000;    15 :      0.000000;    16 :      0.000000;    
17 :      0.000000;    18 :      0.000000;    19 :      0.000000;    
20 :      0.000000;    21 :      0.000000;    22 :      0.000000;    
23 :      0.000000;    24 :      0.000000;    25 :      0.000000;    
26 :      0.000000;    27 :      0.000000;    28 :      0.000000;    
29 :      0.000000;    30 :      0.000000;    31 :      0.000000;    
32 :      0.000000;    33 :      0.000000;    34 :      0.000000;    
35 :      0.000000;    36 :      0.000000;    37 :      0.000000;    
38 :      0.000000;    39 :      0.000000;    40 :      0.000000;    
41 :      0.000000;    42 :      0.000000;    43 :      0.000000;    
44 :      0.000000;    45 :      0.000000;    46 :      0.000000;    
47 :      0.000000;    48 :      0.000000;    49 :      0.000000;    
50 :      0.000000;    51 :      0.000000;    52 :      0.000000;    
53 :      0.000000;    54 :      0.000000;    55 :      0.000000;    
56 :      0.000000;    57 :      0.000000;    58 :      0.000000;    
59 :      0.000000;    60 :      0.000000;    61 :      0.000000;    
62 :      0.000000;    63 :      0.000000;    64 :      0.000000;    
65 :      0.000000;    66 :      0.000000;    67 :      0.000000;    
68 :      0.000000;    69 :      0.000000;    70 :      0.000000;    
71 :      0.000000;    72 :      0.000000;    73 :      0.000000;    
74 :      0.000000;    

Origin  6  
6 :      0.0;    1 :      56.935997;    2 :      320.643351;    
3 :      329.230351;    4 :      0.000000;    5 :      0.000000;    
7 :      0.000000;    8 :      0.000000;    9 :      0.000000;    
10 :      957.700233;    11 :      0.000000;    12 :      0.000000;    
13 :      136.941407;    14 :      136.941407;    15 :      0.000000;    
16 :      181.417875;    17 :      181.417875;    18 :      181.417875;    
19 :      0.000000;    20 :      0.000000;    21 :      54.322955;    
22 :      64.777032;    23 :      0.000000;    24 :      0.000000;    
25 :      0.000000;    26 :      0.000000;    27 :      0.000000;    
28 :      0.000000;    29 :      60.697739;    30 :      0.000000;    
31 :      0.000000;    32 :      0.000000;    33 :      0.000000;    
34 :      0.000000;    35 :      0.000000;    36 :      0.000000;    
37 :      30.947040;    38 :      30.947040;    39 :      30.947040;    
40 :      30.947040;    41 :      0.000000;    42 :      32.851189;    
43 :      0.000000;    44 :      0.000000;    45 :      0.000000;    
46 :      0.000000;    47 :      0.000000;    48 :      20.758405;    
49 :      10.050710;    50 :      11.007453;    51 :      11.007453;    
52 :      4.830574;    53 :      4.854254;    54 :      0.000000;    
55 :      0.000000;    56 :      0.000000;    57 :      0.000000;    
58 :      0.000000;    59 :      0.000000;    60 :      0.000000;    
61 :      0.000000;    62 :      0.000000;    63 :      0.000000;    
64 :      0.000000;    65 :      0.000000;    66 :      0.000000;    
67 :      0.000000;    68 :      0.000000;    69 :      0.000000;    
70 :      0.000000;    71 :      0.000000;    72 :      0.000000;    
73 :      0.000000;    74 :      0.000000;    

Origin  7  
7 :      0.0;    1 :      724.768919;    
2 :      0.000000;    3 :      0.000000;    4 :      0.000000;    
5 :      0.000000;    6 :      0.000000;    8 :      0.000000;    
9 :      0.000000;    10 :      0.000000;    11 :      0.000000;    
12 :      0.000000;    13 :      0.000000;    14 :      0.000000;    
15 :      0.000000;    16 :      0.000000;    17 :      0.000000;    
18 :      0.000000;    19 :      0.000000;    20 :      0.000000;    
21 :      0.000000;    22 :      0.000000;    23 :      0.000000;    
24 :      0.000000;    25 :      0.000000;    26 :      0.000000;    
27 :      0.000000;    28 :      0.000000;    29 :      0.000000;    
30 :      0.000000;    31 :      0.000000;    32 :      0.000000;    
33 :      0.000000;    34 :      0.000000;    35 :      0.000000;    
36 :      0.000000;    37 :      0.000000;    38 :      0.000000;    
39 :      0.000000;    40 :      0.000000;    41 :      0.000000;    
42 :      0.000000;    43 :      0.000000;    44 :      0.000000;    
45 :      0.000000;    46 :      0.000000;    47 :      0.000000;    
48 :      0.000000;    49 :      0.000000;    50 :      0.000000;    
51 :      0.000000;    52 :      0.000000;    53 :      0.000000;    
54 :      0.000000;    55 :      0.000000;    56 :      0.000000;    
57 :      0.000000;    58 :      0.000000;    59 :      0.000000;    
60 :      0.000000;    61 :      0.000000;    62 :      0.000000;    
63 :      0.000000;    64 :      0.000000;    65 :      0.000000;    
66 :      0.000000;    67 :      0.000000;    68 :      0.000000;    
69 :      0.000000;    70 :      0.000000;    71 :      0.000000;    
72 :      0.000000;    73 :      0.000000;    74 :      0.000000;    


Origin  8  
8 :      0.0;    1 :      0.000000;    2 :      0.000000;    3 :      0.000000;    
4 :      0.000000;    5 :      0.000000;    6 :      0.000000;    
7 :      0.000000;    9 :      0.000000;    10 :      0.000000;    
11 :      0.000000;    12 :      0.000000;    13 :      0.000000;    
14 :      0.000000;    15 :      0.000000;    16 :      0.000000;    
17 :      0.000000;    18 :      0.000000;    19 :      0.000000;    
20 :      0.000000;    21 :      0.000000;    22 :      0.000000;    
23 :      0.000000;    24 :      0.000000;    25 :      0.000000;    
26 :      0.000000;    27 :      0.000000;    28 :      0.000000;    
29 :      0.000000;    30 :      0.000000;    31 :      0.000000;    
32 :      0.000000;    33 :      0.000000;    34 :      0.000000;    
35 :      0.000000;    36 :      0.000000;    37 :      0.000000;    
38 :      0.000000;    39 :      0.000000;    40 :      0.000000;    
41 :      0.000000;    42 :      0.000000;    43 :      0.000000;    
44 :      0.000000;    45 :      0.000000;    46 :      0.000000;    
47 :      0.000000;    48 :      0.000000;    49 :      0.000000;    
50 :      0.000000;    51 :      0.000000;    52 :      0.000000;    
53 :      0.000000;    54 :      0.000000;    55 :      0.000000;    
56 :      0.000000;    57 :      0.000000;    58 :      0.000000;    
59 :      0.000000;    60 :      0.000000;    61 :      0.000000;    
62 :      0.000000;    63 :      0.000000;    64 :      0.000000;    
65 :      0.000000;    66 :      0.000000;    67 :      0.000000;    
68 :      0.000000;    69 :      0.000000;    70 :      0.000000;    
71 :      0.000000;    72 :      0.000000;    73 :      0.000000;    
74 :      0.000000;    

Origin  9  
9 :      0.0;    1 :      0.000000;    2 :      0.000000;    
3 :      0.000000;    4 :      0.000000;    5 :      0.000000;    
6 :      0.000000;    7 :      0.000000;    8 :      0.000000;    
10 :      0.000000;    11 :      0.000000;    12 :      0.000000;    
13 :      0.000000;    14 :      0.000000;    15 :      0.000000;    
16 :      0.000000;    17 :      0.000000;    18 :      0.000000;    
19 :      0.000000;    20 :      0.000000;    21 :      0.000000;    
22 :      0.000000;    23 :      0.000000;    24 :      0.000000;    
25 :      0.000000;    26 :      0.000000;    27 :      0.000000;    
28 :      0.000000;    29 :      0.000000;    30 :      0.000000;    
31 :      0.000000;    32 :      0.000000;    33 :      0.000000;    
34 :      0.000000;    35 :      0.000000;    36 :      0.000000;    
37 :      0.000000;    38 :      0.000000;    39 :      0.000000;    
40 :      0.000000;    41 :      0.000000;    42 :      0.000000;    
43 :      0.000000;    44 :      0.000000;    45 :      0.000000;    
46 :      0.000000;    47 :      0.000000;    48 :      0.000000;    
49 :      0.000000;    50 :      0.000000;    51 :      0.000000;    
52 :      0.000000;    53 :      0.000000;    54 :      0.000000;    
55 :      0.000000;    56 :      0.000000;    57 :      0.000000;    
58 :      0.000000;    59 :      0.000000;    60 :      0.000000;    
61 :      0.000000;    62 :      0.000000;    63 :      0.000000;    
64 :      0.000000;    65 :      0.000000;    66 :      0.000000;    
67 :      0.000000;    68 :      0.000000;    69 :      0.000000;    
70 :      0.000000;    71 :      0.000000;    72 :      0.000000;    
73 :      0.000000;    74 :      0.000000;    

Origin  10  
10 :      0.0;    1 :      4.448323;    
2 :      465.677208;    3 :      4.605681;    4 :      0.000000;    
5 :      0.000000;    6 :      190.635770;    7 :      0.000000;    
8 :      0.000000;    9 :      0.000000;    11 :      0.000000;    
12 :      0.000000;    13 :      4.525612;    14 :      4.525612;    
15 :      0.000000;    16 :      0.000000;    17 :      0.000000;    
18 :      0.000000;    19 :      0.000000;    20 :      0.000000;    
21 :      0.000000;    22 :      21.565511;    23 :      0.000000;    
24 :      0.000000;    25 :      0.000000;    26 :      0.000000;    
27 :      0.000000;    28 :      0.000000;    29 :      20.731984;    
30 :      0.000000;    31 :      0.000000;    32 :      0.000000;    
33 :      0.000000;    34 :      0.000000;    35 :      0.000000;    
36 :      0.000000;    37 :      15.865740;    38 :      15.865740;    
39 :      15.865740;    40 :      15.865740;    41 :      0.000000;    
42 :      17.178060;    43 :      0.000000;    44 :      0.000000;    
45 :      0.000000;    46 :      0.000000;    47 :      0.000000;    
48 :      12.195396;    49 :      7.651356;    50 :      8.154251;    
51 :      8.154251;    52 :      4.284714;    53 :      4.263720;    
54 :      0.000000;    55 :      0.000000;    56 :      0.000000;    
57 :      0.000000;    58 :      0.000000;    59 :      0.000000;    
60 :      0.000000;    61 :      0.000000;    62 :      0.000000;    
63 :      0.000000;    64 :      0.000000;    65 :      0.000000;    
66 :      0.000000;    67 :      0.000000;    68 :      0.000000;    
69 :      0.000000;    70 :      0.000000;    71 :      0.000000;    
72 :      0.000000;    73 :      0.000000;    74 :      0.000000;    


Origin  11  
11 :      0.0;    1 :      0.000000;    2 :      0.000000;    3 :      0.000000;    
4 :      0.000000;    5 :      0.000000;    6 :      0.000000;    
7 :      0.000000;    8 :      0.000000;    9 :      0.000000;    
10 :      0.000000;    12 :      0.000000;    13 :      0.000000;    
14 :      0.000000;    15 :      0.000000;    16 :      0.000000;    
17 :      0.000000;    18 :      0.000000;    19 :      0.000000;    
20 :      0.000000;    21 :      0.000000;    22 :      0.000000;    
23 :      0.000000;    24 :      0.000000;    25 :      0.000000;    
26 :      0.000000;    27 :      0.000000;    28 :      0.000000;    
29 :      0.000000;    30 :      0.000000;    31 :      0.000000;    
32 :      0.000000;    33 :      0.000000;    34 :      0.000000;    
35 :      0.000000;    36 :      0.000000;    37 :      0.000000;    
38 :      0.000000;    39 :      0.000000;    40 :      0.000000;    
41 :      0.000000;    42 :      0.000000;    43 :      0.000000;    
44 :      0.000000;    45 :      0.000000;    46 :      0.000000;    
47 :      0.000000;    48 :      0.000000;    49 :      0.000000;    
50 :      0.000000;    51 :      0.000000;    52 :      0.000000;    
53 :      0.000000;    54 :      0.000000;    55 :      0.000000;    
56 :      0.000000;    57 :      0.000000;    58 :      0.000000;    
59 :      0.000000;    60 :      0.000000;    61 :      0.000000;    
62 :      0.000000;    63 :      0.000000;    64 :      0.000000;    
65 :      0.000000;    66 :      0.000000;    67 :      0.000000;    
68 :      0.000000;    69 :      0.000000;    70 :      0.000000;    
71 :      0.000000;    72 :      0.000000;    73 :      0.000000;    
74 :      0.000000;    

Origin  12  
12 :      0.0;    1 :      35.255907;    2 :      0.000000;    
3 :      123.040888;    4 :      0.000000;    5 :      0.000000;    
6 :      0.000000;    7 :      0.000000;    8 :      0.000000;    
9 :      0.000000;    10 :      0.000000;    11 :      0.000000;    
13 :      0.000000;    14 :      0.000000;    15 :      0.000000;    
16 :      0.000000;    17 :      0.000000;    18 :      0.000000;    
19 :      0.000000;    20 :      0.000000;    21 :      0.000000;    
22 :      0.000000;    23 :      0.000000;    24 :      0.000000;    
25 :      0.000000;    26 :      0.000000;    27 :      0.000000;    
28 :      0.000000;    29 :      0.000000;    30 :      0.000000;    
31 :      0.000000;    32 :      0.000000;    33 :      0.000000;    
34 :      0.000000;    35 :      0.000000;    36 :      0.000000;    
37 :      0.000000;    38 :      0.000000;    39 :      0.000000;    
40 :      0.000000;    41 :      0.000000;    42 :      0.000000;    
43 :      0.000000;    44 :      0.000000;    45 :      0.000000;    
46 :      0.000000;    47 :      0.000000;    48 :      0.000000;    
49 :      0.000000;    50 :      0.000000;    51 :      0.000000;    
52 :      0.000000;    53 :      0.000000;    54 :      0.000000;    
55 :      146.285293;    56 :      146.285293;    57 :      0.000000;    
58 :      0.000000;    59 :      0.000000;    60 :      0.000000;    
61 :      0.000000;    62 :      0.000000;    63 :      0.000000;    
64 :      0.000000;    65 :      0.000000;    66 :      0.000000;    
67 :      0.000000;    68 :      0.000000;    69 :      0.000000;    
70 :      0.000000;    71 :      0.000000;    72 :      0.000000;    
73 :      0.000000;    74 :      0.000000;    

Origin  13  
13 :      0.0;    1 :      0.000000;    
2 :      0.000000;    3 :      86.788090;    4 :      0.000000;    
5 :      0.000000;    6 :      0.000000;    7 :      0.000000;    
8 :      0.000000;    9 :      0.000000;    10 :      0.000000;    
11 :      0.000000;    12 :      0.000000;    14 :      0.000000;    
15 :      0.000000;    16 :      0.000000;    17 :      0.000000;    
18 :      0.000000;    19 :      0.000000;    20 :      29.539054;    
21 :      46.768410;    22 :      51.400936;    23 :      0.000000;    
24 :      0.000000;    25 :      0.000000;    26 :      0.000000;    
27 :      0.000000;    28 :      0.000000;    29 :      54.525265;    
30 :      10.879468;    31 :      10.879468;    32 :      10.879468;    
33 :      10.879468;    34 :      0.000000;    35 :      0.000000;    
36 :      0.000000;    37 :      30.048272;    38 :      30.048272;    
39 :      30.048272;    40 :      30.048272;    41 :      0.000000;    
42 :      32.076354;    43 :      0.000000;    44 :      0.000000;    
45 :      0.000000;    46 :      0.000000;    47 :      0.000000;    
48 :      18.612489;    49 :      9.839607;    50 :      10.662938;    
51 :      10.662938;    52 :      4.778146;    53 :      4.783582;    
54 :      1.950833;    55 :      0.000000;    56 :      0.000000;    
57 :      0.000000;    58 :      0.000000;    59 :      2.034743;    
60 :      2.034743;    61 :      2.019167;    62 :      2.007117;    
63 :      2.007117;    64 :      2.007117;    65 :      2.007117;    
66 :      2.007117;    67 :      2.012480;    68 :      0.000000;    
69 :      9.568677;    70 :      0.000000;    71 :      0.000000;    
72 :      0.000000;    73 :      0.000000;    74 :      0.000000;    


Origin  14  
14 :      0.0;    1 :      0.000000;    2 :      0.000000;    3 :      86.788090;    
4 :      0.000000;    5 :      0.000000;    6 :      0.000000;    
7 :      0.000000;    8 :      0.000000;    9 :      0.000000;    
10 :      0.000000;    11 :      0.000000;    12 :      0.000000;    
13 :      0.000000;    15 :      0.000000;    16 :      0.000000;    
17 :      0.000000;    18 :      0.000000;    19 :      0.000000;    
20 :      29.539054;    21 :      46.768410;    22 :      51.400936;    
23 :      0.000000;    24 :      0.000000;    25 :      0.000000;    
26 :      0.000000;    27 :      0.000000;    28 :      0.000000;    
29 :      54.525265;    30 :      10.879468;    31 :      10.879468;    
32 :      10.879468;    33 :      10.879468;    34 :      0.000000;    
35 :      0.000000;    36 :      0.000000;    37 :      30.048272;    
38 :      30.048272;    39 :      30.048272;    40 :      30.048272;    
41 :      0.000000;    42 :      32.076354;    43 :      0.000000;    
44 :      0.000000;    45 :      0.000000;    46 :      0.000000;    
47 :      0.000000;    48 :      18.612489;    49 :      9.839607;    
50 :      10.662938;    51 :      10.662938;    52 :      4.778146;    
53 :      4.783582;    54 :      1.950833;    55 :      0.000000;    
56 :      0.000000;    57 :      0.000000;    58 :      0.000000;    
59 :      2.034743;    60 :      2.034743;    61 :      2.019167;    
62 :      2.007117;    63 :      2.007117;    64 :      2.007117;    
65 :      2.007117;    66 :      2.007117;    67 :      2.012480;    
68 :      0.000000;    69 :      9.568677;    70 :      0.000000;    
71 :      0.000000;    72 :      0.000000;    73 :      0.000000;    
74 :      0.000000;    

Origin  15  
15 :      0.0;    1 :      0.000000;    2 :      0.000000;    
3 :      0.000000;    4 :      0.000000;    5 :      0.000000;    
6 :      0.000000;    7 :      0.000000;    8 :      0.000000;    
9 :      0.000000;    10 :      0.000000;    11 :      0.000000;    
12 :      0.000000;    13 :      0.000000;    14 :      0.000000;    
16 :      0.000000;    17 :      0.000000;    18 :      0.000000;    
19 :      0.000000;    20 :      0.000000;    21 :      0.000000;    
22 :      0.000000;    23 :      0.000000;    24 :      0.000000;    
25 :      0.000000;    26 :      0.000000;    27 :      0.000000;    
28 :      0.000000;    29 :      0.000000;    30 :      0.000000;    
31 :      0.000000;    32 :      0.000000;    33 :      0.000000;    
34 :      0.000000;    35 :      0.000000;    36 :      0.000000;    
37 :      0.000000;    38 :      0.000000;    39 :      0.000000;    
40 :      0.000000;    41 :      0.000000;    42 :      0.000000;    
43 :      0.000000;    44 :      0.000000;    45 :      0.000000;    
46 :      0.000000;    47 :      0.000000;    48 :      0.000000;    
49 :      0.000000;    50 :      0.000000;    51 :      0.000000;    
52 :      0.000000;    53 :      0.000000;    54 :      0.000000;    
55 :      0.000000;    56 :      0.000000;    57 :      0.000000;    
58 :      0.000000;    59 :      0.000000;    60 :      0.000000;    
61 :      0.000000;    62 :      0.000000;    63 :      0.000000;    
64 :      0.000000;    65 :      0.000000;    66 :      0.000000;    
67 :      0.000000;    68 :      0.000000;    69 :      0.000000;    
70 :      0.000000;    71 :      0.000000;    72 :      0.000000;    
73 :      0.000000;    74 :      0.000000;    

Origin  16  
16 :      0.0;    1 :      0.000000;    
2 :      0.000000;    3 :      0.000000;    4 :      0.000000;    
5 :      0.000000;    6 :      0.000000;    7 :      0.000000;    
8 :      0.000000;    9 :      0.000000;    10 :      260.414981;    
11 :      0.000000;    12 :      0.000000;    13 :      0.000000;    
14 :      0.000000;    15 :      0.000000;    17 :      0.000000;    
18 :      0.000000;    19 :      0.000000;    20 :      62.737552;    
21 :      688.877784;    22 :      0.000000;    23 :      0.000000;    
24 :      0.000000;    25 :      0.000000;    26 :      0.000000;    
27 :      0.000000;    28 :      0.000000;    29 :      0.000000;    
30 :      0.000000;    31 :      0.000000;    32 :      0.000000;    
33 :      0.000000;    34 :      0.000000;    35 :      0.000000;    
36 :      0.000000;    37 :      0.000000;    38 :      0.000000;    
39 :      0.000000;    40 :      0.000000;    41 :      0.000000;    
42 :      0.000000;    43 :      0.000000;    44 :      0.000000;    
45 :      0.000000;    46 :      0.000000;    47 :      0.000000;    
48 :      0.000000;    49 :      0.000000;    50 :      0.000000;    
51 :      0.000000;    52 :      0.000000;    53 :      0.000000;    
54 :      0.000000;    55 :      0.000000;    56 :      0.000000;    
57 :      0.000000;    58 :      0.000000;    59 :      0.000000;    
60 :      0.000000;    61 :      0.000000;    62 :      0.000000;    
63 :      0.000000;    64 :      0.000000;    65 :      0.000000;    
66 :      0.000000;    67 :      0.000000;    68 :      0.000000;    
69 :      0.000000;    70 :      0.000000;    71 :      0.000000;    
72 :      0.000000;    73 :      0.000000;    74 :      0.000000;    


Origin  17  
17 :      0.0;    1 :      0.000000;    2 :      0.000000;    3 :      0.000000;    
4 :      0.000000;    5 :      0.000000;    6 :      0.000000;    
7 :      0.000000;    8 :      0.000000;    9 :      0.000000;    
10 :      260.414981;    11 :      0.000000;    12 :      0.000000;    
13 :      0.000000;    14 :      0.000000;    15 :      0.000000;    
16 :      0.000000;    18 :      0.000000;    19 :      0.000000;    
20 :      62.737552;    21 :      688.877784;    22 :      0.000000;    
23 :      0.000000;    24 :      0.000000;    25 :      0.000000;    
26 :      0.000000;    27 :      0.000000;    28 :      0.000000;    
29 :      0.000000;    30 :      0.000000;    31 :      0.000000;    
32 :      0.000000;    33 :      0.000000;    34 :      0.000000;    
35 :      0.000000;    36 :      0.000000;    37 :      0.000000;    
38 :      0.000000;    39 :      0.000000;    40 :      0.000000;    
41 :      0.000000;    42 :      0.000000;    43 :      0.000000;    
44 :      0.000000;    45 :      0.000000;    46 :      0.000000;    
47 :      0.000000;    48 :      0.000000;    49 :      0.000000;    
50 :      0.000000;    51 :      0.000000;    52 :      0.000000;    
53 :      0.000000;    54 :      0.000000;    55 :      0.000000;    
56 :      0.000000;    57 :      0.000000;    58 :      0.000000;    
59 :      0.000000;    60 :      0.000000;    61 :      0.000000;    
62 :      0.000000;    63 :      0.000000;    64 :      0.000000;    
65 :      0.000000;    66 :      0.000000;    67 :      0.000000;    
68 :      0.000000;    69 :      0.000000;    70 :      0.000000;    
71 :      0.000000;    72 :      0.000000;    73 :      0.000000;    
74 :      0.000000;    

Origin  18  
18 :      0.0;    1 :      0.000000;    2 :      0.000000;    
3 :      0.000000;    4 :      0.000000;    5 :      0.000000;    
6 :      0.000000;    7 :      0.000000;    8 :      0.000000;    
9 :      0.000000;    10 :      260.414981;    11 :      0.000000;    
12 :      0.000000;    13 :      0.000000;    14 :      0.000000;    
15 :      0.000000;    16 :      0.000000;    17 :      0.000000;    