<NUMBER OF ZONES> 147 
<TOTAL OD FLOW> 64784 
<END OF METADATA> 


Origin 1 


Origin 2 
 59 : 14 ; 

Origin 3 
 1 : 4 ;  2 : 38 ;  4 : 39 ;  5 : 38 ;  6 : 5 ; 
 7 : 124 ;  24 : 83 ;  26 : 38 ;  30 : 38 ;  42 : 36 ; 
 47 : 5 ;  55 : 40 ;  58 : 41 ;  59 : 18 ;  60 : 40 ; 
 67 : 37 ;  72 : 5 ;  81 : 36 ;  84 : 79 ;  85 : 37 ; 
 89 : 37 ;  98 : 170 ;  99 : 39 ;  102 : 5 ;  103 : 210 ; 
 104 : 2 ;  105 : 38 ;  106 : 38 ;  111 : 44 ;  112 : 95 ; 
 114 : 94 ;  139 : 37 ;  146 : 38 ;  147 : 39 ; 

Origin 4 
 6 : 38 ;  24 : 37 ;  30 : 10 ;  52 : 40 ;  80 : 37 ; 
 85 : 37 ;  95 : 37 ;  99 : 39 ;  100 : 40 ;  103 : 39 ; 
 105 : 39 ;  114 : 95 ;  146 : 38 ;  147 : 84 ; 

Origin 5 
 3 : 6 ;  4 : 85 ;  8 : 46 ;  12 : 53 ;  25 : 43 ; 
 55 : 47 ;  59 : 14 ;  72 : 6 ;  74 : 45 ;  85 : 43 ; 
 86 : 42 ;  97 : 45 ;  100 : 46 ;  104 : 13 ;  106 : 85 ; 
 113 : 51 ; 

Origin 6 
 7 : 38 ;  81 : 37 ;  104 : 39 ;  132 : 36 ; 

Origin 7 
 1 : 45 ;  3 : 45 ;  30 : 45 ;  38 : 44 ;  50 : 6 ; 
 94 : 42 ;  96 : 90 ;  97 : 46 ;  98 : 11 ;  99 : 46 ; 
 100 : 46 ;  104 : 13 ;  105 : 45 ;  106 : 45 ;  107 : 6 ; 
 109 : 6 ;  114 : 51 ;  126 : 46 ;  146 : 44 ; 

Origin 8 
 1 : 46 ;  7 : 6 ;  30 : 44 ;  49 : 46 ;  58 : 94 ; 
 59 : 24 ;  100 : 46 ;  104 : 12 ;  147 : 46 ; 

Origin 9 
 3 : 39 ;  98 : 38 ;  100 : 40 ;  106 : 5 ; 

Origin 10 
 1 : 6 ;  2 : 7 ;  9 : 9 ;  26 : 27 ;  30 : 9 ; 
 59 : 3 ;  60 : 8 ;  98 : 7 ;  100 : 9 ;  101 : 8 ; 
 102 : 9 ;  104 : 8 ;  114 : 20 ; 

Origin 11 
 1 : 4 ;  2 : 6 ;  3 : 13 ;  4 : 12 ;  5 : 10 ; 
 6 : 14 ;  7 : 12 ;  8 : 18 ;  9 : 50 ;  10 : 23 ; 
 12 : 51 ;  13 : 9 ;  14 : 8 ;  15 : 9 ;  17 : 7 ; 
 18 : 8 ;  19 : 17 ;  23 : 6 ;  24 : 13 ;  25 : 37 ; 
 26 : 31 ;  27 : 19 ;  29 : 6 ;  30 : 32 ;  31 : 25 ; 
 35 : 7 ;  38 : 6 ;  39 : 5 ;  45 : 6 ;  47 : 17 ; 
 49 : 11 ;  54 : 12 ;  55 : 6 ;  58 : 11 ;  59 : 32 ; 
 62 : 4 ;  65 : 7 ;  67 : 6 ;  76 : 6 ;  77 : 7 ; 
 82 : 5 ;  84 : 38 ;  86 : 6 ;  90 : 6 ;  95 : 7 ; 
 96 : 11 ;  97 : 11 ;  98 : 13 ;  99 : 17 ;  100 : 24 ; 
 101 : 12 ;  102 : 18 ;  103 : 61 ;  104 : 27 ;  105 : 7 ; 
 107 : 14 ;  109 : 7 ;  113 : 13 ;  114 : 49 ;  116 : 7 ; 
 117 : 14 ;  120 : 14 ;  135 : 7 ;  141 : 13 ;  147 : 45 ; 


Origin 12 
 1 : 6 ;  2 : 19 ;  3 : 6 ;  4 : 5 ;  5 : 12 ; 
 6 : 7 ;  7 : 12 ;  8 : 8 ;  9 : 13 ;  11 : 25 ; 
 14 : 9 ;  16 : 8 ;  18 : 7 ;  19 : 9 ;  25 : 6 ; 
 27 : 17 ;  29 : 7 ;  30 : 5 ;  31 : 12 ;  35 : 13 ; 
 48 : 5 ;  55 : 6 ;  58 : 6 ;  59 : 9 ;  67 : 6 ; 
 69 : 6 ;  72 : 5 ;  80 : 5 ;  81 : 12 ;  82 : 6 ; 
 83 : 6 ;  84 : 5 ;  87 : 7 ;  88 : 13 ;  91 : 7 ; 
 97 : 6 ;  98 : 17 ;  99 : 5 ;  100 : 6 ;  102 : 12 ; 
 103 : 30 ;  104 : 31 ;  105 : 5 ;  108 : 7 ;  112 : 14 ; 
 114 : 7 ;  120 : 7 ;  139 : 5 ;  142 : 13 ;  147 : 12 ; 


Origin 13 
 1 : 27 ;  2 : 34 ;  3 : 33 ;  4 : 13 ;  5 : 6 ; 
 6 : 5 ;  7 : 6 ;  8 : 3 ;  9 : 6 ;  10 : 8 ; 
 11 : 17 ;  12 : 16 ;  17 : 5 ;  18 : 9 ;  22 : 7 ; 
 30 : 5 ;  31 : 28 ;  44 : 6 ;  48 : 5 ;  55 : 6 ; 
 58 : 6 ;  59 : 21 ;  81 : 6 ;  85 : 7 ;  98 : 20 ; 
 100 : 13 ;  101 : 6 ;  102 : 6 ;  103 : 13 ;  104 : 2 ; 
 112 : 6 ;  116 : 7 ;  117 : 15 ;  144 : 7 ;  147 : 13 ; 


Origin 14 
 1 : 12 ;  2 : 32 ;  3 : 13 ;  4 : 7 ;  5 : 12 ; 
 6 : 25 ;  7 : 19 ;  8 : 25 ;  9 : 38 ;  10 : 11 ; 
 11 : 9 ;  12 : 17 ;  15 : 9 ;  16 : 8 ;  18 : 8 ; 
 19 : 9 ;  23 : 6 ;  24 : 6 ;  25 : 5 ;  26 : 13 ; 
 27 : 32 ;  29 : 7 ;  30 : 5 ;  31 : 33 ;  35 : 6 ; 
 38 : 7 ;  50 : 5 ;  52 : 19 ;  55 : 5 ;  58 : 6 ; 
 59 : 38 ;  63 : 5 ;  70 : 7 ;  81 : 19 ;  84 : 7 ; 
 85 : 5 ;  86 : 27 ;  87 : 13 ;  96 : 4 ;  97 : 13 ; 
 98 : 18 ;  99 : 5 ;  100 : 19 ;  102 : 11 ;  103 : 37 ; 
 104 : 25 ;  107 : 6 ;  108 : 7 ;  109 : 6 ;  114 : 6 ; 
 117 : 7 ;  131 : 7 ;  146 : 26 ;  147 : 19 ; 

Origin 15 
 2 : 19 ;  3 : 23 ;  4 : 7 ;  5 : 5 ;  7 : 11 ; 
 8 : 9 ;  10 : 8 ;  13 : 9 ;  14 : 9 ;  16 : 7 ; 
 18 : 9 ;  19 : 8 ;  22 : 5 ;  24 : 6 ;  25 : 5 ; 
 30 : 6 ;  31 : 19 ;  38 : 6 ;  48 : 5 ;  49 : 11 ; 
 52 : 11 ;  54 : 7 ;  55 : 6 ;  58 : 6 ;  59 : 19 ; 
 81 : 6 ;  82 : 7 ;  85 : 6 ;  86 : 6 ;  99 : 6 ; 
 101 : 11 ;  102 : 11 ;  103 : 18 ;  104 : 15 ;  105 : 5 ; 
 107 : 7 ;  108 : 7 ;  109 : 6 ;  111 : 7 ;  114 : 7 ; 
 115 : 7 ;  117 : 7 ;  137 : 7 ;  147 : 12 ; 

Origin 16 
 1 : 37 ;  2 : 26 ;  3 : 11 ;  4 : 16 ;  5 : 9 ; 
 6 : 27 ;  7 : 10 ;  8 : 16 ;  9 : 27 ;  10 : 29 ; 
 11 : 29 ;  12 : 36 ;  14 : 29 ;  17 : 22 ;  18 : 29 ; 
 19 : 7 ;  21 : 14 ;  22 : 4 ;  23 : 5 ;  24 : 4 ; 
 25 : 17 ;  26 : 32 ;  27 : 55 ;  28 : 11 ;  29 : 16 ; 
 30 : 38 ;  31 : 6 ;  32 : 5 ;  33 : 11 ;  35 : 17 ; 
 43 : 11 ;  44 : 4 ;  47 : 9 ;  52 : 5 ;  54 : 10 ; 
 55 : 5 ;  58 : 15 ;  59 : 32 ;  61 : 5 ;  70 : 10 ; 
 72 : 5 ;  74 : 5 ;  77 : 5 ;  80 : 16 ;  81 : 10 ; 
 83 : 6 ;  84 : 4 ;  85 : 27 ;  86 : 4 ;  87 : 6 ; 
 90 : 5 ;  91 : 10 ;  92 : 5 ;  94 : 5 ;  96 : 13 ; 
 97 : 16 ;  98 : 21 ;  99 : 16 ;  100 : 15 ;  101 : 21 ; 
 102 : 25 ;  103 : 37 ;  104 : 35 ;  105 : 11 ;  106 : 5 ; 
 107 : 24 ;  112 : 30 ;  114 : 59 ;  116 : 6 ;  117 : 6 ; 
 124 : 6 ;  135 : 5 ;  142 : 6 ;  143 : 5 ;  146 : 6 ; 
 147 : 32 ; 

Origin 17 
 1 : 5 ;  2 : 43 ;  3 : 7 ;  4 : 12 ;  5 : 5 ; 
 6 : 18 ;  7 : 17 ;  8 : 13 ;  9 : 12 ;  10 : 24 ; 
 11 : 65 ;  12 : 49 ;  14 : 8 ;  16 : 16 ;  18 : 16 ; 
 19 : 138 ;  20 : 5 ;  21 : 9 ;  23 : 5 ;  24 : 5 ; 
 25 : 37 ;  26 : 11 ;  27 : 44 ;  29 : 12 ;  30 : 30 ; 
 31 : 6 ;  32 : 6 ;  33 : 7 ;  35 : 19 ;  43 : 6 ; 
 47 : 5 ;  49 : 6 ;  52 : 6 ;  54 : 6 ;  55 : 6 ; 
 58 : 6 ;  59 : 48 ;  60 : 12 ;  64 : 6 ;  74 : 6 ; 
 76 : 7 ;  77 : 6 ;  80 : 5 ;  84 : 19 ;  85 : 19 ; 
 87 : 5 ;  88 : 7 ;  91 : 6 ;  96 : 10 ;  97 : 11 ; 
 98 : 17 ;  99 : 12 ;  100 : 42 ;  101 : 11 ;  102 : 18 ; 
 103 : 36 ;  104 : 22 ;  107 : 6 ;  108 : 21 ;  111 : 7 ; 
 112 : 20 ;  113 : 6 ;  114 : 28 ;  115 : 13 ;  117 : 7 ; 
 118 : 6 ;  120 : 7 ;  121 : 7 ;  123 : 7 ;  124 : 7 ; 
 133 : 12 ;  136 : 10 ;  143 : 6 ;  144 : 12 ;  147 : 37 ; 


Origin 18 
 1 : 48 ;  2 : 83 ;  3 : 27 ;  4 : 63 ;  5 : 20 ; 
 6 : 27 ;  7 : 27 ;  8 : 39 ;  9 : 35 ;  10 : 5 ; 
 11 : 46 ;  12 : 35 ;  14 : 54 ;  15 : 9 ;  16 : 5 ; 
 17 : 27 ;  19 : 82 ;  20 : 6 ;  21 : 28 ;  22 : 6 ; 
 23 : 6 ;  24 : 5 ;  25 : 20 ;  26 : 21 ;  27 : 54 ; 
 28 : 27 ;  29 : 7 ;  30 : 53 ;  31 : 7 ;  35 : 15 ; 
 36 : 6 ;  38 : 7 ;  45 : 14 ;  47 : 5 ;  49 : 19 ; 
 51 : 6 ;  52 : 20 ;  54 : 6 ;  55 : 6 ;  58 : 13 ; 
 59 : 35 ;  66 : 20 ;  67 : 13 ;  71 : 6 ;  72 : 12 ; 
 80 : 6 ;  81 : 35 ;  83 : 6 ;  84 : 47 ;  85 : 21 ; 
 88 : 6 ;  90 : 7 ;  95 : 14 ;  96 : 5 ;  97 : 20 ; 
 98 : 25 ;  99 : 20 ;  100 : 72 ;  101 : 13 ;  102 : 13 ; 
 103 : 6 ;  104 : 43 ;  107 : 15 ;  108 : 22 ;  110 : 15 ; 
 111 : 15 ;  112 : 8 ;  113 : 59 ;  114 : 45 ;  117 : 46 ; 
 119 : 7 ;  120 : 7 ;  133 : 6 ;  136 : 6 ;  143 : 6 ; 
 145 : 7 ;  146 : 41 ;  147 : 27 ; 

Origin 19 
 1 : 11 ;  2 : 36 ;  3 : 17 ;  4 : 12 ;  6 : 28 ; 
 7 : 11 ;  8 : 12 ;  9 : 12 ;  10 : 6 ;  11 : 16 ; 
 12 : 15 ;  17 : 7 ;  18 : 31 ;  22 : 5 ;  25 : 11 ; 
 26 : 17 ;  27 : 17 ;  29 : 6 ;  30 : 4 ;  31 : 6 ; 
 33 : 6 ;  34 : 4 ;  35 : 6 ;  36 : 5 ;  38 : 6 ; 
 47 : 16 ;  52 : 11 ;  53 : 5 ;  55 : 11 ;  59 : 9 ; 
 72 : 5 ;  80 : 5 ;  81 : 4 ;  85 : 6 ;  87 : 4 ; 
 90 : 6 ;  98 : 16 ;  100 : 17 ;  101 : 5 ;  103 : 28 ; 
 104 : 19 ;  105 : 11 ;  110 : 5 ;  113 : 13 ;  114 : 4 ; 
 117 : 6 ;  144 : 4 ;  146 : 6 ;  147 : 23 ; 

Origin 20 
 1 : 7 ;  5 : 5 ;  6 : 12 ;  9 : 6 ;  13 : 9 ; 
 17 : 7 ;  19 : 9 ;  21 : 17 ;  27 : 5 ;  31 : 6 ; 
 35 : 6 ;  38 : 6 ;  59 : 9 ;  62 : 4 ;  69 : 6 ; 
 85 : 6 ;  98 : 12 ;  99 : 7 ;  101 : 5 ;  103 : 6 ; 
 104 : 9 ;  105 : 5 ;  106 : 6 ;  107 : 6 ;  114 : 6 ; 
 120 : 7 ; 

Origin 21 
 1 : 13 ;  2 : 14 ;  3 : 14 ;  4 : 22 ;  6 : 8 ; 
 7 : 6 ;  8 : 12 ;  9 : 8 ;  11 : 19 ;  12 : 29 ; 
 13 : 10 ;  16 : 9 ;  17 : 9 ;  18 : 6 ;  19 : 38 ; 
 25 : 6 ;  27 : 8 ;  29 : 8 ;  30 : 13 ;  31 : 22 ; 
 49 : 7 ;  59 : 14 ;  81 : 21 ;  85 : 22 ;  100 : 14 ; 
 101 : 7 ;  102 : 8 ;  103 : 13 ;  106 : 8 ;  107 : 8 ; 
 114 : 15 ;  133 : 14 ;  147 : 7 ; 

Origin 22 
 4 : 6 ;  9 : 6 ;  24 : 12 ;  26 : 21 ;  27 : 7 ; 
 30 : 7 ;  58 : 5 ;  59 : 11 ;  80 : 6 ;  91 : 6 ; 
 97 : 6 ;  100 : 7 ;  103 : 7 ;  104 : 8 ;  138 : 5 ; 
 146 : 7 ; 

Origin 23 
 1 : 6 ;  2 : 9 ;  5 : 8 ;  10 : 13 ;  22 : 19 ; 
 25 : 9 ;  26 : 10 ;  28 : 10 ;  33 : 9 ;  44 : 7 ; 
 59 : 13 ;  80 : 8 ;  102 : 9 ;  104 : 4 ;  108 : 10 ; 


Origin 24 
 2 : 14 ;  4 : 14 ;  6 : 15 ;  8 : 15 ;  11 : 11 ; 
 22 : 8 ;  23 : 6 ;  26 : 9 ;  27 : 55 ;  33 : 7 ; 
 35 : 8 ;  38 : 22 ;  40 : 7 ;  42 : 8 ;  44 : 8 ; 
 45 : 7 ;  46 : 8 ;  47 : 14 ;  59 : 17 ;  74 : 9 ; 
 80 : 7 ;  81 : 7 ;  84 : 9 ;  85 : 8 ;  86 : 7 ; 
 91 : 6 ;  97 : 15 ;  100 : 8 ;  103 : 23 ;  104 : 4 ; 
 105 : 7 ;  147 : 14 ; 

Origin 25 
 1 : 13 ;  2 : 13 ;  3 : 6 ;  4 : 33 ;  6 : 20 ; 
 7 : 12 ;  8 : 9 ;  9 : 39 ;  11 : 10 ;  12 : 37 ; 
 14 : 10 ;  15 : 9 ;  16 : 18 ;  17 : 9 ;  18 : 9 ; 
 19 : 28 ;  22 : 7 ;  24 : 5 ;  26 : 51 ;  27 : 29 ; 
 28 : 7 ;  29 : 7 ;  30 : 51 ;  31 : 22 ;  35 : 20 ; 
 36 : 6 ;  42 : 19 ;  44 : 5 ;  45 : 7 ;  46 : 6 ; 
 47 : 5 ;  48 : 6 ;  52 : 21 ;  55 : 6 ;  58 : 21 ; 
 59 : 35 ;  62 : 4 ;  71 : 7 ;  72 : 7 ;  81 : 5 ; 
 82 : 7 ;  83 : 14 ;  85 : 14 ;  86 : 7 ;  97 : 35 ; 
 98 : 12 ;  99 : 13 ;  100 : 28 ;  101 : 14 ;  102 : 14 ; 
 103 : 28 ;  104 : 18 ;  105 : 7 ;  107 : 6 ;  108 : 7 ; 
 112 : 14 ;  113 : 8 ;  114 : 28 ;  126 : 7 ;  147 : 54 ; 


Origin 26 
 24 : 4 ;  27 : 4 ;  31 : 6 ;  33 : 6 ;  34 : 4 ; 
 44 : 5 ;  45 : 6 ;  59 : 7 ;  72 : 5 ;  85 : 5 ; 
 100 : 6 ;  102 : 4 ;  103 : 6 ;  111 : 6 ;  127 : 5 ; 


Origin 27 
 10 : 12 ;  32 : 16 ;  35 : 8 ;  48 : 7 ;  59 : 3 ; 
 85 : 7 ;  104 : 6 ;  146 : 9 ; 

Origin 28 
 1 : 4 ;  2 : 7 ;  12 : 9 ;  22 : 7 ;  26 : 16 ; 
 35 : 6 ;  52 : 7 ;  59 : 2 ;  81 : 7 ;  84 : 7 ; 
 98 : 7 ;  101 : 7 ;  114 : 8 ;  117 : 7 ;  135 : 7 ; 
 147 : 6 ; 

Origin 29 
 11 : 10 ;  62 : 5 ;  114 : 7 ; 

Origin 30 
 6 : 7 ;  8 : 6 ;  27 : 5 ;  35 : 7 ;  52 : 7 ; 
 64 : 7 ; 

Origin 31 
 1 : 17 ;  2 : 42 ;  3 : 55 ;  4 : 29 ;  5 : 12 ; 
 6 : 30 ;  7 : 11 ;  8 : 6 ;  9 : 36 ;  11 : 8 ; 
 12 : 8 ;  14 : 7 ;  17 : 7 ;  18 : 25 ;  21 : 18 ; 
 22 : 6 ;  24 : 14 ;  25 : 45 ;  26 : 12 ;  27 : 156 ; 
 28 : 19 ;  29 : 60 ;  30 : 286 ;  33 : 11 ;  35 : 17 ; 
 38 : 17 ;  44 : 11 ;  47 : 4 ;  49 : 6 ;  50 : 4 ; 
 52 : 25 ;  55 : 18 ;  58 : 30 ;  59 : 84 ;  65 : 6 ; 
 72 : 5 ;  76 : 6 ;  80 : 6 ;  81 : 13 ;  82 : 5 ; 
 83 : 6 ;  84 : 11 ;  85 : 19 ;  92 : 5 ;  96 : 5 ; 
 97 : 5 ;  98 : 31 ;  99 : 12 ;  100 : 32 ;  101 : 18 ; 
 102 : 6 ;  103 : 26 ;  104 : 43 ;  105 : 11 ;  106 : 5 ; 
 107 : 25 ;  112 : 20 ;  114 : 32 ;  115 : 6 ;  117 : 32 ; 
 119 : 6 ;  120 : 6 ;  124 : 6 ;  136 : 5 ;  139 : 5 ; 
 146 : 6 ;  147 : 47 ; 

Origin 32 
 8 : 5 ;  9 : 4 ;  22 : 6 ;  27 : 6 ;  30 : 12 ; 
 47 : 4 ;  58 : 6 ;  84 : 6 ;  103 : 6 ;  104 : 4 ; 
 114 : 6 ;  146 : 5 ;  147 : 6 ; 

Origin 33 
 1 : 15 ;  2 : 7 ;  4 : 15 ;  6 : 14 ;  7 : 6 ; 
 8 : 1 ;  9 : 22 ;  12 : 11 ;  22 : 15 ;  23 : 14 ; 
 27 : 57 ;  30 : 29 ;  31 : 15 ;  35 : 15 ;  36 : 8 ; 
 43 : 7 ;  44 : 7 ;  45 : 8 ;  47 : 13 ;  48 : 7 ; 
 49 : 7 ;  52 : 34 ;  55 : 6 ;  59 : 23 ;  74 : 7 ; 
 81 : 15 ;  88 : 7 ;  92 : 8 ;  97 : 7 ;  98 : 7 ; 
 100 : 14 ;  103 : 36 ;  104 : 15 ;  105 : 13 ;  106 : 15 ; 
 107 : 6 ;  108 : 7 ;  113 : 7 ;  114 : 16 ;  117 : 9 ; 
 134 : 7 ;  136 : 5 ; 

Origin 34 
 2 : 6 ;  3 : 20 ;  4 : 7 ;  6 : 7 ;  8 : 2 ; 
 9 : 8 ;  18 : 10 ;  23 : 12 ;  25 : 7 ;  27 : 7 ; 
 30 : 14 ;  31 : 7 ;  33 : 7 ;  35 : 14 ;  47 : 7 ; 
 51 : 7 ;  52 : 7 ;  55 : 13 ;  58 : 6 ;  59 : 41 ; 
 60 : 7 ;  81 : 13 ;  84 : 7 ;  85 : 6 ;  86 : 14 ; 
 91 : 7 ;  98 : 7 ;  100 : 13 ;  102 : 8 ;  103 : 13 ; 
 104 : 6 ;  106 : 6 ;  108 : 7 ;  147 : 6 ; 

Origin 35 
 1 : 5 ;  4 : 5 ;  7 : 6 ;  9 : 6 ;  11 : 9 ; 
 19 : 9 ;  23 : 18 ;  25 : 7 ;  26 : 5 ;  28 : 6 ; 
 31 : 5 ;  33 : 18 ;  47 : 5 ;  52 : 6 ;  59 : 15 ; 
 87 : 53 ;  100 : 7 ;  102 : 5 ;  103 : 6 ;  104 : 2 ; 
 105 : 5 ;  132 : 4 ; 

Origin 36 
 1 : 6 ;  2 : 19 ;  3 : 12 ;  4 : 19 ;  6 : 19 ; 
 7 : 12 ;  8 : 9 ;  9 : 5 ;  11 : 9 ;  16 : 8 ; 
 23 : 13 ;  24 : 6 ;  25 : 5 ;  27 : 18 ;  30 : 24 ; 
 31 : 12 ;  33 : 6 ;  35 : 25 ;  38 : 6 ;  48 : 6 ; 
 50 : 5 ;  52 : 24 ;  57 : 6 ;  58 : 13 ;  59 : 35 ; 
 61 : 5 ;  62 : 4 ;  70 : 5 ;  76 : 7 ;  80 : 5 ; 
 82 : 5 ;  84 : 6 ;  86 : 5 ;  87 : 5 ;  92 : 6 ; 
 96 : 6 ;  97 : 6 ;  98 : 6 ;  100 : 6 ;  101 : 12 ; 
 102 : 7 ;  103 : 37 ;  104 : 16 ;  105 : 12 ;  106 : 12 ; 
 112 : 7 ;  114 : 28 ;  141 : 7 ;  147 : 25 ; 

Origin 37 
 4 : 5 ;  6 : 4 ;  8 : 5 ;  22 : 5 ;  26 : 5 ; 
 59 : 5 ;  84 : 5 ;  86 : 5 ;  97 : 5 ;  98 : 4 ; 
 100 : 10 ;  103 : 6 ;  109 : 4 ;  114 : 6 ;  117 : 6 ; 


Origin 38 
 1 : 19 ;  2 : 79 ;  3 : 53 ;  4 : 67 ;  5 : 14 ; 
 6 : 14 ;  7 : 5 ;  8 : 46 ;  9 : 33 ;  11 : 38 ; 
 12 : 28 ;  13 : 9 ;  14 : 9 ;  16 : 9 ;  19 : 9 ; 
 22 : 34 ;  23 : 5 ;  24 : 34 ;  25 : 19 ;  26 : 54 ; 
 27 : 86 ;  28 : 6 ;  29 : 14 ;  30 : 34 ;  31 : 34 ; 
 33 : 34 ;  35 : 101 ;  36 : 20 ;  39 : 6 ;  41 : 7 ; 
 42 : 6 ;  44 : 19 ;  45 : 20 ;  47 : 12 ;  49 : 19 ; 
 51 : 7 ;  52 : 52 ;  54 : 12 ;  55 : 58 ;  58 : 44 ; 
 59 : 136 ;  61 : 13 ;  62 : 14 ;  66 : 6 ;  69 : 6 ; 
 72 : 6 ;  74 : 5 ;  80 : 25 ;  81 : 27 ;  82 : 25 ; 
 84 : 54 ;  85 : 21 ;  86 : 6 ;  87 : 13 ;  90 : 6 ; 
 91 : 13 ;  95 : 5 ;  96 : 12 ;  97 : 14 ;  98 : 45 ; 
 99 : 5 ;  100 : 34 ;  101 : 20 ;  102 : 12 ;  103 : 86 ; 
 104 : 14 ;  107 : 14 ;  108 : 7 ;  109 : 15 ;  113 : 6 ; 
 114 : 29 ;  117 : 7 ;  133 : 13 ;  135 : 7 ;  136 : 11 ; 
 147 : 53 ; 

Origin 39 
 1 : 14 ;  2 : 26 ;  3 : 15 ;  4 : 7 ;  5 : 9 ; 
 6 : 14 ;  7 : 4 ;  8 : 9 ;  9 : 15 ;  11 : 8 ; 
 23 : 9 ;  24 : 4 ;  26 : 4 ;  27 : 10 ;  29 : 5 ; 
 30 : 19 ;  35 : 10 ;  38 : 5 ;  40 : 5 ;  41 : 5 ; 
 42 : 4 ;  44 : 5 ;  45 : 4 ;  47 : 4 ;  49 : 9 ; 
 52 : 5 ;  55 : 34 ;  58 : 9 ;  59 : 14 ;  62 : 4 ; 
 65 : 5 ;  67 : 4 ;  70 : 4 ;  80 : 5 ;  81 : 5 ; 
 82 : 5 ;  83 : 5 ;  84 : 10 ;  85 : 8 ;  87 : 5 ; 
 88 : 5 ;  96 : 4 ;  98 : 5 ;  100 : 6 ;  103 : 29 ; 
 105 : 8 ;  108 : 6 ;  110 : 5 ;  112 : 5 ;  114 : 6 ; 
 117 : 11 ;  136 : 8 ;  138 : 3 ;  147 : 14 ; 

Origin 40 
 1 : 10 ;  2 : 11 ;  3 : 12 ;  4 : 16 ;  5 : 9 ; 
 6 : 9 ;  7 : 4 ;  22 : 5 ;  23 : 5 ;  24 : 10 ; 
 25 : 6 ;  27 : 16 ;  28 : 5 ;  30 : 22 ;  31 : 4 ; 
 33 : 4 ;  35 : 12 ;  36 : 5 ;  38 : 34 ;  39 : 6 ; 
 43 : 5 ;  44 : 5 ;  45 : 5 ;  48 : 5 ;  49 : 11 ; 
 52 : 16 ;  54 : 11 ;  55 : 12 ;  58 : 4 ;  59 : 17 ; 
 62 : 3 ;  65 : 5 ;  72 : 5 ;  74 : 5 ;  81 : 5 ; 
 83 : 5 ;  84 : 6 ;  85 : 5 ;  91 : 5 ;  98 : 11 ; 
 100 : 5 ;  103 : 34 ;  104 : 13 ;  109 : 5 ;  114 : 6 ; 
 115 : 6 ;  133 : 4 ;  143 : 5 ;  144 : 5 ;  147 : 12 ; 


Origin 41 
 1 : 9 ;  2 : 5 ;  3 : 5 ;  4 : 13 ;  5 : 6 ; 
 6 : 13 ;  7 : 11 ;  9 : 7 ;  22 : 7 ;  24 : 5 ; 
 26 : 6 ;  27 : 24 ;  29 : 6 ;  30 : 5 ;  33 : 7 ; 
 35 : 12 ;  38 : 7 ;  42 : 5 ;  44 : 5 ;  47 : 5 ; 
 48 : 5 ;  49 : 6 ;  55 : 12 ;  58 : 13 ;  59 : 13 ; 
 81 : 18 ;  84 : 13 ;  85 : 17 ;  88 : 18 ;  97 : 7 ; 
 100 : 6 ;  101 : 6 ;  102 : 7 ;  103 : 17 ;  104 : 10 ; 
 105 : 17 ;  107 : 5 ;  131 : 6 ; 

Origin 42 
 1 : 31 ;  2 : 31 ;  3 : 10 ;  4 : 16 ;  5 : 10 ; 
 6 : 37 ;  7 : 4 ;  8 : 30 ;  9 : 10 ;  14 : 4 ; 
 19 : 7 ;  22 : 11 ;  24 : 4 ;  25 : 5 ;  26 : 5 ; 
 27 : 21 ;  30 : 4 ;  31 : 27 ;  35 : 11 ;  37 : 3 ; 
 38 : 11 ;  39 : 4 ;  41 : 5 ;  44 : 10 ;  46 : 5 ; 
 47 : 9 ;  48 : 4 ;  49 : 15 ;  52 : 16 ;  54 : 5 ; 
 55 : 25 ;  58 : 10 ;  59 : 41 ;  61 : 4 ;  62 : 9 ; 
 63 : 5 ;  65 : 5 ;  66 : 4 ;  67 : 15 ;  68 : 5 ; 
 72 : 4 ;  74 : 6 ;  76 : 4 ;  80 : 5 ;  81 : 6 ; 
 82 : 4 ;  83 : 5 ;  84 : 10 ;  85 : 10 ;  94 : 4 ; 
 95 : 4 ;  96 : 3 ;  97 : 6 ;  98 : 5 ;  99 : 16 ; 
 100 : 15 ;  101 : 6 ;  103 : 21 ;  104 : 20 ;  105 : 14 ; 
 108 : 6 ;  109 : 6 ;  110 : 4 ;  111 : 6 ;  112 : 12 ; 
 114 : 6 ;  146 : 5 ;  147 : 11 ; 

Origin 43 
 1 : 18 ;  2 : 5 ;  3 : 13 ;  4 : 13 ;  6 : 6 ; 
 7 : 5 ;  11 : 9 ;  12 : 27 ;  14 : 8 ;  17 : 9 ; 
 22 : 13 ;  25 : 11 ;  27 : 26 ;  28 : 6 ;  30 : 6 ; 
 33 : 18 ;  35 : 13 ;  38 : 6 ;  40 : 7 ;  41 : 6 ; 
 42 : 5 ;  45 : 13 ;  47 : 9 ;  48 : 17 ;  49 : 5 ; 
 50 : 5 ;  52 : 13 ;  55 : 24 ;  58 : 19 ;  59 : 16 ; 
 61 : 6 ;  62 : 3 ;  66 : 6 ;  67 : 5 ;  82 : 5 ; 
 84 : 26 ;  85 : 18 ;  91 : 13 ;  94 : 6 ;  98 : 36 ; 
 99 : 6 ;  100 : 5 ;  103 : 31 ;  104 : 8 ;  105 : 18 ; 
 108 : 7 ;  110 : 7 ;  111 : 6 ;  113 : 6 ;  114 : 7 ; 
 119 : 7 ;  136 : 5 ;  147 : 30 ; 

Origin 44 
 1 : 47 ;  2 : 23 ;  3 : 30 ;  4 : 40 ;  5 : 12 ; 
 6 : 22 ;  7 : 22 ;  8 : 34 ;  9 : 7 ;  12 : 9 ; 
 17 : 9 ;  21 : 9 ;  22 : 24 ;  23 : 10 ;  24 : 11 ; 
 25 : 11 ;  26 : 18 ;  27 : 57 ;  30 : 6 ;  31 : 12 ; 
 35 : 23 ;  36 : 6 ;  38 : 12 ;  39 : 5 ;  41 : 7 ; 
 42 : 10 ;  43 : 6 ;  45 : 23 ;  47 : 16 ;  49 : 10 ; 
 50 : 5 ;  52 : 29 ;  54 : 21 ;  55 : 51 ;  57 : 6 ; 
 58 : 12 ;  59 : 93 ;  63 : 6 ;  64 : 6 ;  65 : 6 ; 
 72 : 5 ;  81 : 17 ;  82 : 12 ;  84 : 29 ;  85 : 24 ; 
 87 : 6 ;  88 : 18 ;  91 : 11 ;  92 : 7 ;  94 : 5 ; 
 96 : 5 ;  97 : 12 ;  98 : 10 ;  100 : 7 ;  101 : 6 ; 
 103 : 23 ;  104 : 17 ;  105 : 5 ;  106 : 6 ;  109 : 13 ; 
 114 : 7 ;  117 : 7 ;  131 : 7 ;  136 : 4 ;  141 : 12 ; 
 146 : 6 ;  147 : 18 ; 

Origin 45 
 1 : 22 ;  2 : 10 ;  3 : 37 ;  4 : 43 ;  5 : 10 ; 
 6 : 17 ;  7 : 4 ;  8 : 3 ;  9 : 11 ;  10 : 14 ; 
 11 : 8 ;  12 : 7 ;  21 : 8 ;  22 : 5 ;  23 : 10 ; 
 24 : 11 ;  25 : 26 ;  26 : 11 ;  27 : 33 ;  30 : 22 ; 
 31 : 5 ;  33 : 11 ;  35 : 10 ;  38 : 28 ;  39 : 5 ; 
 40 : 5 ;  43 : 11 ;  44 : 4 ;  47 : 4 ;  49 : 4 ; 
 52 : 5 ;  55 : 10 ;  58 : 11 ;  59 : 40 ;  60 : 5 ; 
 62 : 3 ;  63 : 5 ;  67 : 10 ;  72 : 4 ;  74 : 5 ; 
 77 : 5 ;  81 : 22 ;  82 : 10 ;  84 : 16 ;  85 : 10 ; 
 86 : 5 ;  90 : 10 ;  95 : 6 ;  96 : 8 ;  98 : 42 ; 
 99 : 4 ;  101 : 6 ;  103 : 22 ;  104 : 13 ;  105 : 6 ; 
 107 : 6 ;  108 : 5 ;  113 : 18 ;  114 : 6 ;  132 : 4 ; 
 136 : 4 ;  147 : 28 ; 

Origin 46 
 1 : 14 ;  2 : 16 ;  3 : 12 ;  4 : 16 ;  5 : 12 ; 
 6 : 16 ;  7 : 12 ;  22 : 16 ;  27 : 15 ;  33 : 30 ; 
 34 : 15 ;  35 : 16 ;  37 : 14 ;  38 : 16 ;  41 : 16 ; 
 47 : 14 ;  58 : 45 ;  70 : 16 ;  73 : 15 ;  81 : 15 ; 
 84 : 13 ;  98 : 12 ;  103 : 15 ;  104 : 16 ;  107 : 17 ; 
 112 : 17 ;  113 : 17 ;  147 : 16 ; 

Origin 47 
 1 : 20 ;  2 : 51 ;  3 : 52 ;  4 : 73 ;  5 : 30 ; 
 6 : 20 ;  7 : 9 ;  8 : 20 ;  9 : 21 ;  10 : 21 ; 
 11 : 10 ;  13 : 11 ;  16 : 10 ;  18 : 10 ;  24 : 17 ; 
 25 : 7 ;  27 : 7 ;  31 : 7 ;  35 : 9 ;  36 : 9 ; 
 42 : 8 ;  48 : 8 ;  50 : 14 ;  52 : 16 ;  54 : 8 ; 
 55 : 41 ;  58 : 49 ;  59 : 129 ;  63 : 7 ;  67 : 8 ; 
 71 : 9 ;  72 : 25 ;  73 : 6 ;  76 : 18 ;  77 : 8 ; 
 80 : 36 ;  81 : 7 ;  82 : 18 ;  84 : 28 ;  85 : 36 ; 
 86 : 18 ;  87 : 18 ;  98 : 8 ;  99 : 17 ;  100 : 27 ; 
 101 : 44 ;  102 : 16 ;  103 : 62 ;  104 : 81 ;  105 : 17 ; 
 108 : 31 ;  112 : 11 ;  114 : 21 ;  120 : 11 ;  124 : 10 ; 
 141 : 28 ;  144 : 7 ;  147 : 19 ; 

Origin 48 
 2 : 8 ;  4 : 16 ;  5 : 15 ;  6 : 7 ;  7 : 5 ; 
 8 : 7 ;  10 : 8 ;  27 : 7 ;  31 : 13 ;  33 : 7 ; 
 47 : 12 ;  49 : 6 ;  55 : 6 ;  58 : 12 ;  59 : 11 ; 
 67 : 6 ;  70 : 7 ;  72 : 5 ;  80 : 6 ;  84 : 7 ; 
 88 : 6 ;  97 : 34 ;  98 : 12 ;  99 : 6 ;  101 : 7 ; 
 103 : 13 ;  104 : 12 ;  105 : 12 ;  106 : 7 ;  108 : 7 ; 
 147 : 7 ; 

Origin 49 
 1 : 8 ;  2 : 9 ;  3 : 6 ;  4 : 5 ;  7 : 6 ; 
 27 : 8 ;  30 : 14 ;  50 : 10 ;  52 : 7 ;  55 : 13 ; 
 58 : 8 ;  59 : 37 ;  61 : 6 ;  67 : 6 ;  72 : 7 ; 
 73 : 7 ;  79 : 7 ;  80 : 8 ;  81 : 8 ;  82 : 6 ; 
 84 : 6 ;  87 : 8 ;  89 : 8 ;  98 : 6 ;  101 : 8 ; 
 102 : 8 ;  103 : 14 ;  104 : 7 ;  107 : 9 ;  108 : 6 ; 
 113 : 8 ;  114 : 10 ;  127 : 8 ; 

Origin 50 
 1 : 29 ;  2 : 6 ;  3 : 14 ;  4 : 34 ;  5 : 35 ; 
 6 : 19 ;  8 : 15 ;  11 : 7 ;  19 : 6 ;  31 : 12 ; 
 32 : 23 ;  33 : 5 ;  38 : 5 ;  39 : 4 ;  44 : 12 ; 
 47 : 10 ;  52 : 11 ;  53 : 5 ;  54 : 6 ;  58 : 11 ; 
 59 : 37 ;  63 : 5 ;  67 : 12 ;  70 : 6 ;  71 : 5 ; 
 81 : 26 ;  82 : 12 ;  83 : 6 ;  84 : 12 ;  85 : 5 ; 
 88 : 6 ;  96 : 3 ;  97 : 6 ;  98 : 4 ;  100 : 11 ; 
 103 : 48 ;  104 : 11 ;  111 : 7 ;  112 : 6 ;  114 : 14 ; 
 117 : 7 ;  120 : 7 ;  131 : 12 ;  134 : 5 ;  147 : 28 ; 


Origin 51 
 1 : 16 ;  2 : 15 ;  3 : 7 ;  4 : 38 ;  8 : 11 ; 
 9 : 15 ;  24 : 6 ;  27 : 13 ;  32 : 7 ;  33 : 7 ; 
 34 : 6 ;  35 : 6 ;  49 : 5 ;  52 : 47 ;  55 : 6 ; 
 58 : 17 ;  59 : 35 ;  67 : 19 ;  77 : 7 ;  80 : 7 ; 
 81 : 7 ;  82 : 6 ;  84 : 26 ;  85 : 14 ;  88 : 7 ; 
 97 : 13 ;  100 : 13 ;  103 : 32 ;  104 : 37 ;  105 : 6 ; 
 107 : 8 ;  108 : 7 ;  109 : 8 ;  114 : 8 ;  124 : 8 ; 
 141 : 7 ;  147 : 5 ; 

Origin 52 
 1 : 7 ;  2 : 22 ;  3 : 21 ;  4 : 38 ;  5 : 7 ; 
 6 : 22 ;  9 : 8 ;  11 : 8 ;  14 : 16 ;  19 : 15 ; 
 22 : 6 ;  27 : 37 ;  29 : 7 ;  30 : 13 ;  31 : 6 ; 
 33 : 5 ;  35 : 13 ;  47 : 12 ;  49 : 5 ;  50 : 4 ; 
 54 : 6 ;  55 : 53 ;  58 : 34 ;  59 : 50 ;  62 : 5 ; 
 64 : 6 ;  67 : 12 ;  68 : 7 ;  74 : 13 ;  81 : 13 ; 
 84 : 14 ;  85 : 33 ;  87 : 7 ;  89 : 14 ;  91 : 7 ; 
 96 : 5 ;  97 : 13 ;  98 : 6 ;  99 : 7 ;  100 : 18 ; 
 101 : 13 ;  102 : 12 ;  103 : 57 ;  104 : 37 ;  105 : 6 ; 
 108 : 15 ;  109 : 23 ;  113 : 7 ;  114 : 23 ;  117 : 8 ; 
 147 : 22 ; 

Origin 53 
 2 : 8 ;  4 : 15 ;  6 : 7 ;  35 : 7 ;  55 : 6 ; 
 59 : 20 ;  63 : 7 ;  84 : 5 ;  86 : 6 ;  87 : 13 ; 
 98 : 6 ;  103 : 25 ;  104 : 13 ; 

Origin 54 
 1 : 35 ;  2 : 20 ;  3 : 5 ;  4 : 7 ;  5 : 34 ; 
 6 : 21 ;  7 : 5 ;  8 : 8 ;  10 : 7 ;  22 : 12 ; 
 23 : 10 ;  24 : 5 ;  26 : 6 ;  30 : 4 ;  31 : 5 ; 
 35 : 12 ;  38 : 6 ;  47 : 10 ;  51 : 5 ;  52 : 27 ; 
 55 : 17 ;  58 : 16 ;  59 : 45 ;  63 : 4 ;  67 : 4 ; 
 80 : 5 ;  81 : 5 ;  85 : 23 ;  86 : 11 ;  88 : 6 ; 
 92 : 5 ;  97 : 12 ;  98 : 11 ;  100 : 5 ;  103 : 12 ; 
 104 : 21 ;  105 : 5 ;  135 : 6 ;  147 : 28 ; 

Origin 55 
 1 : 13 ;  2 : 6 ;  3 : 7 ;  4 : 21 ;  5 : 6 ; 
 6 : 7 ;  7 : 5 ;  9 : 7 ;  25 : 5 ;  26 : 5 ; 
 27 : 11 ;  29 : 6 ;  39 : 5 ;  48 : 5 ;  49 : 5 ; 
 52 : 12 ;  53 : 5 ;  54 : 5 ;  57 : 5 ;  58 : 16 ; 
 59 : 28 ;  61 : 11 ;  62 : 3 ;  66 : 11 ;  70 : 5 ; 
 74 : 6 ;  81 : 6 ;  85 : 4 ;  87 : 11 ;  88 : 6 ; 
 91 : 6 ;  95 : 6 ;  96 : 4 ;  97 : 5 ;  98 : 12 ; 
 100 : 17 ;  101 : 6 ;  103 : 17 ;  104 : 26 ;  105 : 4 ; 
 114 : 7 ;  147 : 21 ; 

Origin 56 
 3 : 6 ;  18 : 7 ;  52 : 13 ;  58 : 5 ;  59 : 11 ; 
 60 : 6 ;  85 : 6 ;  98 : 7 ;  103 : 6 ;  105 : 5 ; 


Origin 57 
 1 : 7 ;  2 : 14 ;  3 : 9 ;  5 : 7 ;  6 : 15 ; 
 8 : 3 ;  22 : 6 ;  24 : 7 ;  38 : 6 ;  41 : 7 ; 
 47 : 5 ;  49 : 6 ;  52 : 11 ;  54 : 6 ;  55 : 18 ; 
 58 : 21 ;  59 : 25 ;  70 : 5 ;  77 : 7 ;  83 : 7 ; 
 84 : 7 ;  86 : 7 ;  100 : 7 ;  102 : 5 ;  103 : 19 ; 
 104 : 12 ;  105 : 7 ;  147 : 22 ; 

Origin 58 
 2 : 7 ;  3 : 17 ;  4 : 7 ;  5 : 7 ;  6 : 7 ; 
 7 : 23 ;  8 : 11 ;  9 : 7 ;  10 : 8 ;  17 : 8 ; 
 18 : 7 ;  25 : 14 ;  27 : 14 ;  31 : 7 ;  33 : 6 ; 
 36 : 7 ;  47 : 5 ;  49 : 13 ;  52 : 20 ;  54 : 5 ; 
 55 : 84 ;  57 : 6 ;  59 : 54 ;  60 : 6 ;  61 : 5 ; 
 63 : 6 ;  65 : 6 ;  67 : 7 ;  69 : 6 ;  77 : 21 ; 
 80 : 15 ;  81 : 21 ;  84 : 15 ;  85 : 7 ;  98 : 13 ; 
 100 : 14 ;  103 : 29 ;  104 : 4 ;  105 : 6 ;  112 : 8 ; 
 114 : 7 ;  137 : 7 ;  147 : 32 ; 

Origin 59 
 1 : 8 ;  3 : 17 ;  4 : 26 ;  5 : 25 ;  6 : 9 ; 
 7 : 8 ;  8 : 9 ;  9 : 17 ;  24 : 7 ;  25 : 6 ; 
 26 : 15 ;  27 : 7 ;  30 : 15 ;  35 : 8 ;  47 : 5 ; 
 52 : 7 ;  53 : 7 ;  54 : 7 ;  57 : 14 ;  58 : 13 ; 
 67 : 21 ;  70 : 7 ;  81 : 8 ;  82 : 7 ;  83 : 15 ; 
 84 : 8 ;  87 : 7 ;  88 : 8 ;  90 : 8 ;  98 : 8 ; 
 100 : 7 ;  101 : 7 ;  103 : 8 ;  104 : 3 ;  114 : 18 ; 
 138 : 5 ; 

Origin 60 
 2 : 10 ; 

Origin 61 
 85 : 8 ; 

Origin 62 
 1 : 70 ;  2 : 71 ;  3 : 14 ;  4 : 51 ;  5 : 56 ; 
 6 : 50 ;  7 : 6 ;  8 : 42 ;  9 : 43 ;  11 : 8 ; 
 16 : 6 ;  17 : 7 ;  21 : 8 ;  22 : 7 ;  23 : 11 ; 
 27 : 24 ;  30 : 6 ;  31 : 18 ;  33 : 12 ;  35 : 12 ; 
 38 : 19 ;  44 : 5 ;  47 : 17 ;  48 : 5 ;  49 : 11 ; 
 52 : 62 ;  54 : 10 ;  55 : 96 ;  58 : 84 ;  59 : 195 ; 
 61 : 6 ;  63 : 6 ;  66 : 6 ;  67 : 5 ;  70 : 12 ; 
 71 : 13 ;  72 : 17 ;  74 : 31 ;  76 : 7 ;  77 : 6 ; 
 79 : 12 ;  80 : 6 ;  81 : 25 ;  83 : 7 ;  84 : 31 ; 
 85 : 19 ;  86 : 6 ;  87 : 7 ;  90 : 7 ;  91 : 11 ; 
 92 : 6 ;  94 : 7 ;  97 : 12 ;  98 : 48 ;  99 : 5 ; 
 100 : 5 ;  101 : 7 ;  102 : 6 ;  103 : 61 ;  104 : 25 ; 
 105 : 6 ;  107 : 8 ;  109 : 7 ;  113 : 7 ;  114 : 15 ; 
 131 : 12 ;  135 : 13 ;  138 : 17 ;  139 : 7 ;  144 : 6 ; 
 146 : 6 ;  147 : 14 ; 

Origin 63 
 1 : 6 ;  2 : 6 ;  3 : 14 ;  5 : 5 ;  7 : 6 ; 
 8 : 5 ;  9 : 7 ;  10 : 6 ;  11 : 14 ;  16 : 5 ; 
 17 : 7 ;  18 : 5 ;  25 : 6 ;  27 : 5 ;  30 : 5 ; 
 38 : 6 ;  45 : 5 ;  49 : 4 ;  52 : 11 ;  55 : 22 ; 
 58 : 22 ;  59 : 45 ;  60 : 5 ;  62 : 4 ;  71 : 6 ; 
 72 : 4 ;  80 : 5 ;  81 : 6 ;  82 : 6 ;  85 : 18 ; 
 86 : 6 ;  90 : 5 ;  91 : 5 ;  103 : 30 ;  104 : 5 ; 
 136 : 4 ; 

Origin 64 
 8 : 1 ;  19 : 16 ;  55 : 12 ;  59 : 22 ;  68 : 14 ; 
 104 : 2 ; 

Origin 65 
 1 : 14 ;  2 : 6 ;  3 : 28 ;  4 : 6 ;  6 : 6 ; 
 8 : 5 ;  16 : 6 ;  22 : 5 ;  23 : 5 ;  24 : 4 ; 
 26 : 6 ;  27 : 23 ;  38 : 6 ;  41 : 5 ;  42 : 5 ; 
 43 : 5 ;  46 : 6 ;  47 : 10 ;  52 : 5 ;  55 : 11 ; 
 57 : 5 ;  58 : 50 ;  59 : 61 ;  62 : 3 ;  64 : 5 ; 
 67 : 4 ;  72 : 11 ;  77 : 6 ;  80 : 6 ;  81 : 5 ; 
 83 : 4 ;  84 : 6 ;  98 : 6 ;  100 : 5 ;  103 : 18 ; 
 105 : 5 ;  112 : 6 ;  136 : 3 ;  147 : 14 ; 

Origin 66 
 1 : 29 ;  2 : 6 ;  3 : 16 ;  4 : 23 ;  5 : 10 ; 
 6 : 16 ;  7 : 5 ;  8 : 5 ;  16 : 7 ;  22 : 6 ; 
 24 : 5 ;  31 : 5 ;  36 : 6 ;  42 : 6 ;  52 : 6 ; 
 54 : 11 ;  55 : 6 ;  58 : 5 ;  59 : 23 ;  69 : 6 ; 
 73 : 4 ;  77 : 6 ;  82 : 11 ;  84 : 17 ;  85 : 5 ; 
 87 : 6 ;  90 : 6 ;  91 : 5 ;  94 : 5 ;  98 : 11 ; 
 100 : 23 ;  101 : 6 ;  103 : 36 ;  104 : 20 ;  106 : 10 ; 
 107 : 6 ;  111 : 8 ;  114 : 7 ;  131 : 7 ;  147 : 5 ; 


Origin 67 
 1 : 14 ;  2 : 31 ;  3 : 6 ;  4 : 6 ;  5 : 15 ; 
 7 : 6 ;  8 : 7 ;  9 : 15 ;  10 : 18 ;  20 : 7 ; 
 23 : 15 ;  25 : 7 ;  27 : 22 ;  28 : 7 ;  30 : 7 ; 
 36 : 16 ;  38 : 14 ;  43 : 7 ;  48 : 6 ;  49 : 16 ; 
 52 : 30 ;  54 : 7 ;  55 : 22 ;  58 : 14 ;  59 : 31 ; 
 62 : 5 ;  69 : 8 ;  70 : 7 ;  71 : 7 ;  72 : 7 ; 
 73 : 6 ;  74 : 16 ;  80 : 15 ;  82 : 7 ;  83 : 8 ; 
 84 : 36 ;  85 : 16 ;  86 : 6 ;  88 : 7 ;  90 : 7 ; 
 91 : 7 ;  94 : 6 ;  95 : 7 ;  97 : 7 ;  98 : 22 ; 
 99 : 16 ;  100 : 31 ;  101 : 23 ;  102 : 16 ;  103 : 78 ; 
 104 : 20 ;  105 : 30 ;  106 : 22 ;  111 : 9 ;  113 : 6 ; 
 114 : 37 ;  121 : 8 ;  133 : 6 ;  141 : 7 ;  146 : 7 ; 
 147 : 15 ; 

Origin 68 
 2 : 16 ;  3 : 14 ;  4 : 7 ;  5 : 15 ;  6 : 32 ; 
 7 : 7 ;  8 : 14 ;  9 : 8 ;  30 : 8 ;  47 : 7 ; 
 52 : 24 ;  55 : 15 ;  58 : 8 ;  59 : 20 ;  76 : 9 ; 
 81 : 14 ;  82 : 7 ;  84 : 14 ;  85 : 24 ;  91 : 14 ; 
 98 : 24 ;  100 : 23 ;  103 : 48 ;  104 : 15 ;  107 : 9 ; 
 108 : 10 ;  116 : 9 ;  146 : 8 ;  147 : 23 ; 

Origin 69 
 1 : 22 ;  2 : 15 ;  3 : 4 ;  4 : 54 ;  5 : 4 ; 
 6 : 16 ;  7 : 5 ;  8 : 16 ;  9 : 11 ;  11 : 6 ; 
 16 : 5 ;  22 : 5 ;  24 : 10 ;  26 : 4 ;  27 : 5 ; 
 29 : 5 ;  31 : 17 ;  33 : 11 ;  35 : 5 ;  38 : 5 ; 
 39 : 5 ;  42 : 4 ;  47 : 11 ;  48 : 10 ;  50 : 4 ; 
 51 : 5 ;  52 : 11 ;  55 : 16 ;  59 : 36 ;  62 : 9 ; 
 67 : 4 ;  74 : 5 ;  76 : 4 ;  80 : 5 ;  81 : 22 ; 
 82 : 5 ;  83 : 4 ;  84 : 11 ;  86 : 5 ;  87 : 10 ; 
 95 : 5 ;  96 : 3 ;  97 : 11 ;  98 : 45 ;  99 : 11 ; 
 100 : 5 ;  101 : 6 ;  103 : 34 ;  104 : 13 ;  105 : 17 ; 
 107 : 12 ;  114 : 6 ;  117 : 7 ;  131 : 5 ;  146 : 11 ; 
 147 : 10 ; 

Origin 70 
 1 : 28 ;  2 : 55 ;  3 : 17 ;  4 : 55 ;  6 : 34 ; 
 7 : 10 ;  8 : 10 ;  9 : 11 ;  14 : 7 ;  15 : 7 ; 
 26 : 11 ;  27 : 5 ;  31 : 11 ;  34 : 6 ;  38 : 6 ; 
 48 : 5 ;  49 : 6 ;  52 : 17 ;  54 : 5 ;  55 : 23 ; 
 58 : 6 ;  59 : 83 ;  66 : 5 ;  73 : 5 ;  74 : 11 ; 
 80 : 17 ;  81 : 6 ;  84 : 17 ;  85 : 16 ;  87 : 6 ; 
 91 : 6 ;  96 : 5 ;  97 : 11 ;  98 : 6 ;  100 : 30 ; 
 103 : 23 ;  104 : 16 ;  108 : 13 ;  112 : 7 ;  114 : 47 ; 
 147 : 11 ; 

Origin 71 
 1 : 28 ;  2 : 7 ;  3 : 8 ;  4 : 47 ;  5 : 27 ; 
 8 : 8 ;  10 : 10 ;  11 : 11 ;  27 : 8 ;  44 : 8 ; 
 48 : 8 ;  50 : 8 ;  52 : 10 ;  59 : 9 ;  76 : 10 ; 
 84 : 28 ;  85 : 7 ;  100 : 9 ;  101 : 9 ;  103 : 19 ; 
 104 : 15 ;  105 : 29 ; 

Origin 72 
 1 : 5 ;  2 : 20 ;  3 : 12 ;  4 : 13 ;  5 : 6 ; 
 6 : 13 ;  11 : 7 ;  14 : 7 ;  23 : 5 ;  31 : 6 ; 
 38 : 6 ;  47 : 5 ;  52 : 13 ;  58 : 13 ;  59 : 17 ; 
 84 : 5 ;  85 : 14 ;  86 : 5 ;  88 : 13 ;  98 : 7 ; 
 100 : 6 ;  103 : 46 ;  104 : 16 ;  131 : 20 ;  147 : 13 ; 


Origin 73 
 1 : 8 ;  2 : 9 ;  4 : 9 ;  6 : 8 ;  8 : 11 ; 
 24 : 10 ;  38 : 8 ;  47 : 26 ;  52 : 17 ;  54 : 8 ; 
 55 : 8 ;  59 : 15 ;  60 : 10 ;  76 : 9 ;  84 : 9 ; 
 86 : 18 ;  100 : 27 ;  103 : 18 ;  104 : 2 ;  105 : 18 ; 
 107 : 12 ;  108 : 8 ;  114 : 20 ;  141 : 9 ; 

Origin 74 
 1 : 36 ;  2 : 21 ;  3 : 5 ;  4 : 26 ;  6 : 10 ; 
 8 : 2 ;  15 : 6 ;  16 : 6 ;  23 : 4 ;  24 : 5 ; 
 26 : 10 ;  36 : 5 ;  38 : 6 ;  47 : 4 ;  55 : 10 ; 
 58 : 5 ;  59 : 70 ;  60 : 5 ;  67 : 4 ;  73 : 3 ; 
 76 : 9 ;  80 : 10 ;  84 : 5 ;  87 : 4 ;  88 : 5 ; 
 91 : 5 ;  97 : 10 ;  98 : 15 ;  99 : 5 ;  100 : 6 ; 
 103 : 5 ;  106 : 5 ;  107 : 4 ;  113 : 6 ;  114 : 12 ; 
 116 : 4 ; 

Origin 75 
 1 : 10 ;  59 : 2 ;  84 : 11 ;  98 : 11 ; 

Origin 76 
 1 : 25 ;  2 : 24 ;  3 : 12 ;  4 : 35 ;  5 : 5 ; 
 6 : 19 ;  8 : 12 ;  9 : 12 ;  10 : 6 ;  15 : 7 ; 
 27 : 11 ;  29 : 6 ;  31 : 12 ;  34 : 6 ;  39 : 6 ; 
 47 : 5 ;  48 : 5 ;  52 : 30 ;  54 : 6 ;  55 : 29 ; 
 58 : 25 ;  59 : 46 ;  60 : 18 ;  61 : 12 ;  67 : 7 ; 
 68 : 6 ;  69 : 12 ;  72 : 6 ;  74 : 11 ;  77 : 25 ; 
 79 : 13 ;  80 : 11 ;  81 : 18 ;  83 : 6 ;  84 : 6 ; 
 85 : 36 ;  87 : 12 ;  88 : 36 ;  89 : 6 ;  90 : 6 ; 
 91 : 11 ;  94 : 5 ;  95 : 5 ;  97 : 12 ;  98 : 36 ; 
 100 : 37 ;  101 : 12 ;  103 : 105 ;  104 : 54 ;  105 : 36 ; 
 113 : 6 ;  114 : 14 ;  131 : 6 ;  139 : 5 ;  147 : 11 ; 


Origin 77 
 1 : 22 ;  2 : 16 ;  3 : 4 ;  4 : 16 ;  6 : 12 ; 
 8 : 11 ;  9 : 5 ;  14 : 6 ;  22 : 11 ;  25 : 4 ; 
 27 : 5 ;  47 : 16 ;  52 : 16 ;  55 : 16 ;  58 : 6 ; 
 59 : 21 ;  62 : 3 ;  73 : 3 ;  74 : 5 ;  75 : 6 ; 
 76 : 5 ;  79 : 5 ;  80 : 6 ;  81 : 16 ;  82 : 5 ; 
 84 : 33 ;  85 : 5 ;  86 : 5 ;  90 : 11 ;  91 : 4 ; 
 92 : 11 ;  98 : 4 ;  99 : 5 ;  100 : 38 ;  101 : 12 ; 
 102 : 10 ;  103 : 39 ;  104 : 12 ;  105 : 28 ;  106 : 4 ; 
 107 : 5 ;  114 : 14 ;  120 : 6 ;  121 : 6 ;  131 : 17 ; 
 147 : 11 ; 

Origin 78 
 58 : 7 ;  77 : 8 ;  88 : 6 ;  97 : 8 ; 

Origin 79 
 1 : 34 ;  2 : 11 ;  3 : 10 ;  4 : 35 ;  5 : 10 ; 
 6 : 18 ;  7 : 16 ;  8 : 29 ;  11 : 14 ;  24 : 5 ; 
 25 : 5 ;  26 : 5 ;  47 : 16 ;  52 : 6 ;  54 : 6 ; 
 55 : 47 ;  57 : 6 ;  58 : 12 ;  59 : 24 ;  61 : 6 ; 