<NUMBER OF ZONES> 110 
<TOTAL OD FLOW> 184679.561 
<END OF METADATA> 


Origin 1 
 3 : 402.1 ;  5 : 25.66 ;  6 : 28.2 ;  7 : 12.44 ;  8 : 16.64 ; 
 9 : 19.87 ;  10 : 33.93 ;  11 : 24.81 ;  12 : 24.81 ;  13 : 27.29 ; 
 14 : 15.73 ;  15 : 33.08 ;  16 : 24 ;  17 : 19.85 ;  18 : 7.463 ; 
 19 : 19.06 ;  20 : 3.308 ;  22 : 3.366 ;  23 : 37.35 ;  24 : 40.21 ; 
 25 : 30.75 ;  26 : 26.5 ;  27 : 21.6 ;  28 : 39.01 ;  29 : 47.52 ; 
 30 : 39.85 ;  31 : 42.29 ;  32 : 50.49 ;  33 : 30.85 ;  34 : 29.83 ; 
 35 : 50.47 ;  36 : 43.14 ;  37 : 69.78 ;  38 : 15.1 ;  39 : 4.962 ; 
 40 : 19.87 ;  41 : 50.58 ;  42 : 21.5 ;  43 : 6.617 ;  44 : 66.43 ; 
 45 : 18.21 ;  46 : 3.308 ;  47 : 3.366 ;  48 : 4.212 ;  49 : 14.89 ; 
 50 : 9.098 ;  51 : 9.963 ;  52 : 5.001 ;  53 : 17.41 ;  54 : 2.519 ; 
 55 : 0.827 ;  57 : 0.827 ;  59 : 1.654 ;  60 : 0.827 ;  61 : 6.617 ; 
 62 : 7.444 ;  63 : 17.37 ;  64 : 13.23 ;  65 : 15.71 ;  68 : 13.33 ; 
 69 : 1.654 ;  70 : 4.135 ;  71 : 9.925 ;  72 : 10.75 ;  73 : 7.444 ; 
 74 : 216.2 ;  75 : 24.02 ;  76 : 21.5 ;  77 : 12.41 ;  78 : 10 ; 
 79 : 1.673 ;  80 : 3.308 ;  81 : 6.655 ;  84 : 49.62 ;  85 : 5.789 ; 
 86 : 1.654 ;  87 : 8.271 ;  88 : 2.481 ;  89 : 0.827 ;  90 : 9.098 ; 
 91 : 2.481 ;  92 : 9.098 ;  93 : 4.962 ;  94 : 4.135 ;  95 : 15.71 ; 
 97 : 1.654 ;  98 : 1.654 ;  100 : 7.444 ;  101 : 20.73 ;  102 : 40.64 ; 
 103 : 0.827 ;  104 : 5.789 ;  105 : 26.49 ;  106 : 2.481 ;  107 : 2.481 ; 


Origin 2 


Origin 3 
 6 : 1.654 ;  19 : 0.846 ;  74 : 2.538 ; 

Origin 4 


Origin 5 
 1 : 13.27 ;  3 : 20.68 ;  6 : 8.271 ;  7 : 3.308 ;  8 : 8.328 ; 
 9 : 6.655 ;  10 : 16.58 ;  11 : 9.925 ;  12 : 12.41 ;  13 : 4.135 ; 
 14 : 9.925 ;  15 : 11.58 ;  16 : 10.87 ;  17 : 1.654 ;  18 : 4.962 ; 
 19 : 6.655 ;  22 : 10.98 ;  23 : 24.25 ;  24 : 47.33 ;  25 : 11.6 ; 
 26 : 9.925 ;  27 : 5.809 ;  28 : 5.001 ;  29 : 6.617 ;  30 : 7.577 ; 
 31 : 9.155 ;  32 : 7.444 ;  33 : 28.58 ;  34 : 9.155 ;  35 : 35.83 ; 
 36 : 16.54 ;  37 : 34.93 ;  38 : 7.596 ;  39 : 2.481 ;  40 : 4.135 ; 
 41 : 6.674 ;  42 : 4.962 ;  43 : 5.789 ;  44 : 35.68 ;  45 : 23.98 ; 
 46 : 2.481 ;  50 : 6.617 ;  51 : 3.308 ;  52 : 6.617 ;  53 : 8.271 ; 
 62 : 4.962 ;  63 : 1.654 ;  64 : 1.654 ;  68 : 10.81 ;  70 : 4.135 ; 
 71 : 3.308 ;  74 : 28.12 ;  75 : 25.98 ;  76 : 0.827 ;  78 : 4.962 ; 
 80 : 3.308 ;  84 : 13.23 ;  85 : 1.654 ;  86 : 0.827 ;  87 : 2.481 ; 
 88 : 3.308 ;  90 : 7.444 ;  91 : 4.962 ;  92 : 7.463 ;  93 : 2.481 ; 
 95 : 1.654 ;  97 : 0.827 ;  100 : 2.481 ;  101 : 9.944 ;  102 : 19.08 ; 
 103 : 0.827 ;  104 : 0.827 ;  105 : 4.135 ;  106 : 4.962 ;  107 : 1.654 ; 


Origin 6 
 1 : 54.62 ;  3 : 75.26 ;  5 : 20.87 ;  7 : 38.2 ;  8 : 43.41 ; 
 9 : 32.35 ;  10 : 28.16 ;  11 : 79.46 ;  12 : 36.45 ;  13 : 52.95 ; 
 14 : 21.5 ;  15 : 64.55 ;  16 : 52.22 ;  17 : 27.31 ;  18 : 29.06 ; 
 19 : 25.7 ;  20 : 3.308 ;  21 : 4.962 ;  22 : 4.193 ;  23 : 61.81 ; 
 24 : 84.45 ;  25 : 30.75 ;  26 : 14.06 ;  27 : 26.64 ;  28 : 43.08 ; 
 29 : 46.43 ;  30 : 21.66 ;  31 : 77.2 ;  32 : 34.04 ;  33 : 36.62 ; 
 34 : 69.09 ;  35 : 132.7 ;  36 : 73.76 ;  37 : 88.9 ;  38 : 29.06 ; 
 39 : 4.962 ;  40 : 19.87 ;  41 : 43.03 ;  42 : 34.76 ;  43 : 33.14 ; 
 44 : 115.6 ;  45 : 62.95 ;  46 : 0.827 ;  47 : 1.654 ;  48 : 4.135 ; 
 49 : 4.962 ;  50 : 11.66 ;  51 : 17.37 ;  52 : 19.02 ;  53 : 20.71 ; 
 55 : 4.135 ;  56 : 2.481 ;  57 : 2.481 ;  58 : 4.135 ;  60 : 8.271 ; 
 61 : 5.789 ;  62 : 12.41 ;  63 : 7.444 ;  64 : 7.501 ;  65 : 9.925 ; 
 66 : 0.827 ;  68 : 13.33 ;  69 : 0.827 ;  70 : 19.98 ;  71 : 19.02 ; 
 72 : 16.54 ;  73 : 1.654 ;  74 : 150.6 ;  75 : 45.6 ;  76 : 23.98 ; 
 77 : 19.04 ;  78 : 14.89 ;  79 : 1.654 ;  80 : 5.789 ;  81 : 3.308 ; 
 84 : 36.39 ;  85 : 5.789 ;  87 : 7.444 ;  88 : 6.617 ;  89 : 0.827 ; 
 90 : 17.37 ;  91 : 4.962 ;  92 : 24.81 ;  93 : 13.23 ;  94 : 13.29 ; 
 95 : 11.58 ;  97 : 4.962 ;  98 : 5.789 ;  99 : 0.827 ;  100 : 14.89 ; 
 101 : 50.45 ;  102 : 70.4 ;  103 : 3.327 ;  104 : 1.654 ;  105 : 23.16 ; 
 106 : 7.444 ;  107 : 1.654 ; 

Origin 7 
 1 : 49.68 ;  3 : 85.19 ;  5 : 9.982 ;  6 : 43.22 ;  8 : 23.27 ; 
 9 : 26.68 ;  10 : 20.68 ;  11 : 47.16 ;  12 : 15.71 ;  13 : 21.5 ; 
 14 : 21.52 ;  15 : 30.64 ;  16 : 38.89 ;  17 : 25.68 ;  18 : 21.54 ; 
 19 : 10.77 ;  20 : 2.481 ;  22 : 0.827 ;  23 : 26.56 ;  24 : 21.68 ; 
 25 : 14.93 ;  26 : 15.71 ;  27 : 13.23 ;  28 : 15.71 ;  29 : 25.64 ; 
 30 : 19.95 ;  31 : 64.53 ;  32 : 26.52 ;  33 : 26.64 ;  34 : 26.5 ; 
 35 : 54.62 ;  36 : 44.87 ;  37 : 58.82 ;  38 : 13.35 ;  39 : 5.789 ; 
 40 : 10.75 ;  41 : 20.71 ;  42 : 19.02 ;  43 : 12.41 ;  44 : 56.32 ; 
 45 : 15.71 ;  46 : 0.827 ;  47 : 3.308 ;  48 : 0.827 ;  49 : 1.654 ; 
 50 : 1.692 ;  51 : 12.41 ;  52 : 4.962 ;  53 : 9.925 ;  54 : 1.654 ; 
 55 : 1.654 ;  57 : 0.827 ;  58 : 1.654 ;  59 : 1.654 ;  60 : 7.444 ; 
 61 : 6.617 ;  62 : 5.789 ;  63 : 4.135 ;  64 : 4.962 ;  65 : 22.33 ; 
 66 : 0.827 ;  68 : 15.04 ;  70 : 7.444 ;  71 : 19.02 ;  72 : 20.68 ; 
 73 : 7.444 ;  74 : 108.4 ;  75 : 19.02 ;  76 : 9.925 ;  77 : 11.58 ; 
 78 : 4.135 ;  79 : 3.308 ;  81 : 4.962 ;  83 : 0.827 ;  84 : 25.64 ; 
 85 : 4.135 ;  86 : 0.827 ;  87 : 10.75 ;  89 : 0.827 ;  90 : 5.789 ; 
 91 : 5.789 ;  92 : 13.23 ;  93 : 13.23 ;  94 : 7.444 ;  95 : 10.75 ; 
 96 : 0.827 ;  97 : 4.135 ;  98 : 1.654 ;  100 : 10.75 ;  101 : 28.12 ; 
 102 : 36.43 ;  103 : 0.827 ;  105 : 15.71 ;  106 : 2.481 ; 

Origin 8 
 1 : 29.02 ;  3 : 57.89 ;  5 : 4.154 ;  6 : 16.62 ;  7 : 8.271 ; 
 9 : 8.271 ;  10 : 9.944 ;  11 : 35.68 ;  12 : 9.098 ;  13 : 31.43 ; 
 14 : 10.75 ;  15 : 28.97 ;  16 : 32.29 ;  17 : 27.29 ;  18 : 13.27 ; 
 19 : 7.463 ;  20 : 4.135 ;  21 : 0.827 ;  22 : 0.827 ;  23 : 15.83 ; 
 24 : 19.25 ;  25 : 8.29 ;  26 : 5.789 ;  27 : 13.23 ;  28 : 25.64 ; 
 29 : 23.2 ;  30 : 9.925 ;  31 : 44.78 ;  32 : 18.33 ;  33 : 14.19 ; 
 34 : 38.95 ;  35 : 41.45 ;  36 : 39.04 ;  37 : 40.81 ;  38 : 14.08 ; 
 39 : 8.271 ;  40 : 9.944 ;  41 : 26.47 ;  42 : 27.33 ;  43 : 11.62 ; 
 44 : 61.45 ;  45 : 21.5 ;  46 : 7.444 ;  48 : 0.827 ;  49 : 13.33 ; 
 50 : 5.828 ;  51 : 14.06 ;  52 : 10.75 ;  53 : 12.41 ;  58 : 4.962 ; 
 59 : 5.789 ;  60 : 1.654 ;  61 : 10.75 ;  62 : 11.58 ;  63 : 8.271 ; 
 64 : 7.482 ;  65 : 9.925 ;  68 : 4.135 ;  69 : 1.654 ;  70 : 6.617 ; 
 71 : 19.02 ;  72 : 20.68 ;  74 : 63.72 ;  75 : 17.37 ;  76 : 8.271 ; 
 77 : 11.58 ;  78 : 9.925 ;  79 : 0.827 ;  80 : 1.654 ;  81 : 0.827 ; 
 82 : 0.827 ;  83 : 0.827 ;  84 : 18.2 ;  85 : 5.789 ;  87 : 4.962 ; 
 88 : 6.617 ;  90 : 4.962 ;  91 : 7.444 ;  92 : 18.2 ;  93 : 13.23 ; 
 94 : 2.481 ;  95 : 1.654 ;  96 : 3.308 ;  97 : 4.135 ;  98 : 4.135 ; 
 100 : 18.29 ;  101 : 31.43 ;  102 : 44.7 ;  103 : 1.654 ;  104 : 2.481 ; 
 105 : 18.25 ;  106 : 1.654 ;  107 : 1.654 ; 

Origin 9 
 1 : 11.58 ;  3 : 42.2 ;  5 : 8.29 ;  6 : 14.14 ;  7 : 12.52 ; 
 8 : 7.501 ;  10 : 6.617 ;  11 : 14.1 ;  12 : 7.444 ;  13 : 33.93 ; 
 14 : 27.29 ;  15 : 5.828 ;  16 : 15.73 ;  17 : 5.789 ;  18 : 3.308 ; 
 19 : 4.962 ;  20 : 2.481 ;  21 : 0.827 ;  22 : 0.827 ;  23 : 6.617 ; 
 24 : 5.058 ;  25 : 3.308 ;  26 : 2.481 ;  27 : 4.154 ;  28 : 4.962 ; 
 29 : 1.654 ;  30 : 4.135 ;  31 : 17.37 ;  32 : 12.43 ;  33 : 5.809 ; 
 34 : 9.925 ;  35 : 22.33 ;  36 : 7.482 ;  37 : 15.81 ;  38 : 5.828 ; 
 39 : 5.828 ;  40 : 3.308 ;  41 : 6.655 ;  42 : 9.098 ;  43 : 7.444 ; 
 44 : 22.33 ;  45 : 11.58 ;  46 : 1.654 ;  50 : 1.654 ;  51 : 9.925 ; 
 52 : 1.654 ;  53 : 5.789 ;  55 : 1.654 ;  62 : 1.654 ;  63 : 4.135 ; 
 64 : 4.962 ;  65 : 5.789 ;  66 : 1.654 ;  68 : 3.308 ;  70 : 5.923 ; 
 71 : 3.308 ;  72 : 2.481 ;  73 : 1.654 ;  74 : 41.35 ;  75 : 4.135 ; 
 76 : 4.962 ;  77 : 2.481 ;  78 : 1.654 ;  80 : 0.827 ;  81 : 0.827 ; 
 83 : 0.827 ;  84 : 14.06 ;  87 : 5.789 ;  91 : 0.827 ;  92 : 7.444 ; 
 93 : 9.098 ;  94 : 0.827 ;  95 : 2.481 ;  98 : 1.654 ;  100 : 2.481 ; 
 101 : 4.962 ;  102 : 24.16 ;  103 : 0.827 ;  104 : 1.654 ;  105 : 2.481 ; 
 107 : 1.654 ; 

Origin 10 
 1 : 1.654 ;  3 : 6.617 ;  5 : 1.654 ;  6 : 2.481 ;  7 : 0.827 ; 
 8 : 3.308 ;  9 : 1.654 ;  11 : 3.308 ;  12 : 3.308 ;  13 : 4.135 ; 
 14 : 3.308 ;  15 : 12.54 ;  16 : 3.327 ;  17 : 2.481 ;  18 : 4.154 ; 
 19 : 5.02 ;  23 : 0.827 ;  24 : 3.308 ;  25 : 4.962 ;  27 : 0.827 ; 
 28 : 5.789 ;  29 : 0.846 ;  30 : 0.827 ;  31 : 4.962 ;  32 : 1.654 ; 
 33 : 8.423 ;  34 : 9.982 ;  35 : 6.617 ;  36 : 3.327 ;  37 : 5.02 ; 
 38 : 1.654 ;  39 : 1.654 ;  40 : 0.827 ;  41 : 4.135 ;  42 : 5.789 ; 
 43 : 1.654 ;  44 : 14.1 ;  45 : 6.655 ;  47 : 0.827 ;  48 : 4.174 ; 
 49 : 1.654 ;  51 : 2.481 ;  52 : 2.481 ;  53 : 2.481 ;  54 : 2.481 ; 
 63 : 2.481 ;  64 : 4.135 ;  65 : 4.962 ;  67 : 2.481 ;  68 : 2.481 ; 
 71 : 4.135 ;  72 : 9.098 ;  73 : 1.654 ;  74 : 10.75 ;  75 : 4.962 ; 
 76 : 0.827 ;  78 : 0.827 ;  79 : 0.827 ;  81 : 3.308 ;  84 : 6.617 ; 
 87 : 1.654 ;  89 : 0.827 ;  91 : 1.654 ;  92 : 0.827 ;  93 : 4.962 ; 
 98 : 3.308 ;  100 : 4.962 ;  101 : 7.444 ;  102 : 4.962 ;  105 : 2.481 ; 


Origin 11 
 1 : 14.06 ;  3 : 29.79 ;  5 : 0.846 ;  6 : 11.58 ;  7 : 3.346 ; 
 8 : 5.828 ;  9 : 5.789 ;  10 : 10.77 ;  12 : 6.636 ;  13 : 6.693 ; 
 14 : 5.809 ;  15 : 12.41 ;  16 : 17.39 ;  17 : 10.75 ;  18 : 11.62 ; 
 19 : 2.481 ;  20 : 0.827 ;  21 : 1.654 ;  22 : 0.827 ;  23 : 10.79 ; 
 24 : 9.155 ;  25 : 2.481 ;  26 : 4.154 ;  27 : 2.481 ;  28 : 9.117 ; 
 29 : 8.271 ;  30 : 3.308 ;  31 : 4.135 ;  32 : 8.29 ;  33 : 18.44 ; 
 34 : 12.41 ;  35 : 16.56 ;  36 : 23.2 ;  37 : 15.73 ;  38 : 3.308 ; 
 39 : 1.654 ;  40 : 4.135 ;  41 : 8.271 ;  42 : 12.41 ;  43 : 5.789 ; 
 44 : 24.87 ;  45 : 4.962 ;  46 : 2.538 ;  48 : 0.827 ;  49 : 0.827 ; 
 50 : 1.654 ;  51 : 7.444 ;  52 : 1.654 ;  53 : 13.23 ;  55 : 4.962 ; 
 56 : 0.827 ;  57 : 2.481 ;  59 : 4.135 ;  61 : 1.654 ;  62 : 3.308 ; 
 63 : 2.481 ;  64 : 4.135 ;  65 : 8.366 ;  66 : 3.308 ;  68 : 0.846 ; 
 70 : 5.001 ;  71 : 8.271 ;  72 : 1.654 ;  73 : 9.963 ;  74 : 33.93 ; 
 75 : 13.29 ;  76 : 1.654 ;  77 : 3.308 ;  78 : 7.444 ;  79 : 1.654 ; 
 81 : 0.827 ;  84 : 5.789 ;  87 : 2.481 ;  88 : 1.654 ;  90 : 7.444 ; 
 91 : 4.135 ;  92 : 14.08 ;  93 : 4.135 ;  94 : 0.827 ;  95 : 1.654 ; 
 97 : 0.827 ;  98 : 3.327 ;  100 : 4.962 ;  101 : 7.444 ;  102 : 19.85 ; 
 103 : 0.827 ;  104 : 1.654 ;  105 : 3.308 ;  106 : 1.654 ; 

Origin 12 
 1 : 12.41 ;  3 : 45.49 ;  5 : 2.481 ;  6 : 4.154 ;  7 : 2.481 ; 
 8 : 4.154 ;  9 : 2.481 ;  10 : 4.962 ;  11 : 4.962 ;  13 : 12.43 ; 
 14 : 6.636 ;  15 : 28.99 ;  16 : 19.89 ;  17 : 9.925 ;  18 : 9.117 ; 
 19 : 9.982 ;  20 : 2.481 ;  23 : 7.444 ;  24 : 10 ;  25 : 7.482 ; 
 26 : 2.481 ;  27 : 1.654 ;  28 : 9.925 ;  29 : 8.271 ;  30 : 5.789 ; 
 31 : 6.636 ;  32 : 18.25 ;  33 : 4.154 ;  34 : 7.501 ;  35 : 16.58 ; 
 36 : 14.12 ;  37 : 24.93 ;  38 : 1.654 ;  39 : 5.885 ;  40 : 4.135 ; 
 41 : 8.271 ;  42 : 4.962 ;  43 : 5.789 ;  44 : 33.22 ;  45 : 4.135 ; 
 46 : 1.654 ;  47 : 2.481 ;  48 : 0.827 ;  49 : 0.827 ;  50 : 1.654 ; 
 51 : 15.71 ;  52 : 4.135 ;  53 : 5.001 ;  56 : 0.827 ;  58 : 3.308 ; 
 59 : 1.654 ;  61 : 4.135 ;  62 : 12.41 ;  63 : 4.962 ;  64 : 5.789 ; 
 65 : 5.789 ;  67 : 1.654 ;  68 : 1.654 ;  70 : 5.789 ;  71 : 4.135 ; 
 72 : 8.271 ;  73 : 1.654 ;  74 : 33.91 ;  75 : 4.981 ;  76 : 1.654 ; 
 77 : 4.962 ;  78 : 0.827 ;  80 : 1.654 ;  84 : 8.271 ;  85 : 4.962 ; 
 87 : 4.962 ;  88 : 0.827 ;  89 : 0.827 ;  91 : 5.789 ;  92 : 6.617 ; 
 93 : 6.617 ;  94 : 0.827 ;  95 : 3.308 ;  97 : 1.654 ;  98 : 0.827 ; 
 100 : 3.308 ;  101 : 14.06 ;  102 : 12.46 ;  104 : 0.827 ;  105 : 6.617 ; 
 106 : 2.481 ; 

Origin 13 
 1 : 14.89 ;  3 : 39.7 ;  5 : 0.827 ;  6 : 6.617 ;  7 : 1.654 ; 
 8 : 8.29 ;  9 : 4.135 ;  10 : 4.962 ;  11 : 8.29 ;  12 : 9.174 ; 
 14 : 14.91 ;  15 : 13.23 ;  16 : 14.91 ;  17 : 4.981 ;  18 : 3.308 ; 
 19 : 5.789 ;  21 : 0.827 ;  23 : 8.385 ;  24 : 6.636 ;  25 : 5.039 ; 
 26 : 3.308 ;  27 : 0.827 ;  28 : 9.136 ;  29 : 8.271 ;  30 : 0.827 ; 
 31 : 2.481 ;  32 : 4.962 ;  33 : 4.212 ;  34 : 10.04 ;  35 : 6.617 ; 
 36 : 12.44 ;  37 : 17.37 ;  38 : 0.827 ;  39 : 2.481 ;  40 : 4.135 ; 
 41 : 10.75 ;  42 : 9.212 ;  43 : 7.444 ;  44 : 11.58 ;  45 : 14.06 ; 
 46 : 2.538 ;  47 : 0.827 ;  49 : 0.827 ;  51 : 0.827 ;  52 : 2.481 ; 
 53 : 4.962 ;  55 : 1.654 ;  60 : 4.135 ;  61 : 0.827 ;  62 : 3.308 ; 
 63 : 5.789 ;  65 : 2.481 ;  66 : 2.481 ;  70 : 2.538 ;  71 : 12.41 ; 
 72 : 9.925 ;  73 : 4.135 ;  74 : 19.02 ;  75 : 5.789 ;  76 : 4.962 ; 
 77 : 1.654 ;  78 : 5.789 ;  79 : 1.673 ;  80 : 0.827 ;  84 : 0.827 ; 
 85 : 0.827 ;  87 : 0.827 ;  90 : 1.654 ;  92 : 2.481 ;  93 : 1.654 ; 
 94 : 2.481 ;  95 : 1.654 ;  97 : 0.827 ;  100 : 6.636 ;  101 : 9.925 ; 
 102 : 12.41 ;  103 : 1.673 ;  105 : 3.308 ;  106 : 0.827 ; 

Origin 14 
 1 : 8.271 ;  3 : 40.53 ;  5 : 4.135 ;  6 : 13.31 ;  7 : 1.654 ; 
 8 : 7.482 ;  9 : 26.5 ;  10 : 10.75 ;  11 : 24.04 ;  12 : 9.117 ; 
 13 : 63.7 ;  15 : 42.29 ;  16 : 19.04 ;  17 : 27.29 ;  18 : 5.809 ; 
 19 : 14.08 ;  20 : 3.308 ;  21 : 0.827 ;  23 : 7.463 ;  24 : 0.827 ; 
 25 : 0.827 ;  26 : 2.481 ;  27 : 5.789 ;  28 : 9.098 ;  29 : 9.963 ; 
 30 : 7.463 ;  31 : 16.54 ;  32 : 7.444 ;  33 : 7.463 ;  34 : 9.155 ; 
 35 : 18.21 ;  36 : 11.58 ;  37 : 20.7 ;  38 : 5.904 ;  40 : 5.809 ; 
 41 : 8.271 ;  42 : 9.925 ;  43 : 2.481 ;  44 : 29.85 ;  45 : 7.482 ; 
 48 : 0.827 ;  49 : 2.481 ;  50 : 3.308 ;  51 : 3.308 ;  52 : 4.962 ; 
 53 : 7.444 ;  55 : 0.827 ;  58 : 2.481 ;  60 : 2.481 ;  62 : 1.692 ; 
 63 : 3.308 ;  64 : 3.308 ;  65 : 0.827 ;  67 : 2.481 ;  68 : 2.519 ; 
 70 : 3.308 ;  71 : 17.37 ;  72 : 14.06 ;  73 : 1.654 ;  74 : 18.2 ; 
 75 : 9.944 ;  76 : 2.481 ;  77 : 2.481 ;  84 : 5.789 ;  85 : 0.827 ; 
 87 : 5.789 ;  90 : 1.654 ;  91 : 0.827 ;  92 : 6.617 ;  93 : 4.135 ; 
 95 : 3.308 ;  96 : 0.827 ;  97 : 2.481 ;  100 : 3.308 ;  101 : 6.655 ; 
 102 : 10.75 ;  103 : 0.827 ;  105 : 2.481 ; 

Origin 15 
 1 : 39.7 ;  3 : 78.57 ;  5 : 4.962 ;  6 : 15.73 ;  7 : 3.327 ; 
 8 : 15.75 ;  9 : 22.35 ;  10 : 38.1 ;  11 : 44.74 ;  12 : 47.2 ; 
 13 : 56.3 ;  14 : 50.53 ;  16 : 63.84 ;  17 : 29.81 ;  18 : 23.23 ; 
 19 : 31.64 ;  20 : 6.617 ;  21 : 0.827 ;  22 : 5.847 ;  23 : 35.74 ; 
 24 : 42.62 ;  25 : 34.87 ;  26 : 9.944 ;  27 : 9.944 ;  28 : 25.7 ; 
 29 : 18.25 ;  30 : 14.08 ;  31 : 47.26 ;  32 : 33.24 ;  33 : 27.62 ; 
 34 : 58.93 ;  35 : 84.38 ;  36 : 62.05 ;  37 : 83.8 ;  38 : 19.12 ; 
 39 : 10.79 ;  40 : 20.7 ;  41 : 32.26 ;  42 : 36.41 ;  43 : 18.2 ; 
 44 : 155.1 ;  45 : 42.47 ;  46 : 21.5 ;  47 : 2.481 ;  48 : 11.77 ; 
 49 : 8.328 ;  50 : 7.444 ;  51 : 12.41 ;  52 : 16.54 ;  53 : 24.06 ; 
 54 : 0.846 ;  55 : 2.5 ;  56 : 0.827 ;  57 : 3.308 ;  58 : 10.04 ; 
 59 : 4.135 ;  60 : 4.962 ;  61 : 8.309 ;  62 : 8.271 ;  63 : 9.098 ; 
 64 : 27.29 ;  65 : 18.27 ;  66 : 1.654 ;  68 : 11.73 ;  69 : 2.481 ; 
 70 : 19.02 ;  71 : 19.02 ;  72 : 26.47 ;  73 : 19.85 ;  74 : 58.74 ; 
 75 : 18.27 ;  76 : 7.444 ;  77 : 5.789 ;  78 : 11.58 ;  79 : 0.827 ; 
 80 : 4.135 ;  81 : 1.654 ;  82 : 1.654 ;  84 : 15.71 ;  85 : 18.2 ; 
 87 : 7.444 ;  88 : 4.135 ;  90 : 2.481 ;  91 : 14.06 ;  92 : 33.95 ; 
 93 : 19.04 ;  94 : 10.75 ;  95 : 9.925 ;  96 : 4.154 ;  97 : 11.58 ; 
 98 : 9.925 ;  99 : 0.827 ;  100 : 24.87 ;  101 : 55.41 ;  102 : 80.38 ; 
 103 : 4.135 ;  104 : 7.52 ;  105 : 18.2 ;  106 : 2.481 ;  107 : 4.135 ; 


Origin 16 
 1 : 16.54 ;  3 : 26.47 ;  5 : 1.654 ;  6 : 4.981 ;  7 : 0.827 ; 
 8 : 4.981 ;  9 : 4.135 ;  10 : 2.481 ;  11 : 5.789 ;  12 : 6.617 ; 
 13 : 12.41 ;  14 : 7.444 ;  15 : 14.14 ;  17 : 27.43 ;  18 : 19.04 ; 
 19 : 13.33 ;  20 : 8.271 ;  23 : 4.981 ;  24 : 9.982 ;  25 : 3.308 ; 
 26 : 4.135 ;  27 : 1.654 ;  28 : 8.29 ;  29 : 2.481 ;  30 : 7.444 ; 
 31 : 4.962 ;  32 : 8.328 ;  33 : 1.654 ;  34 : 14.1 ;  35 : 17.37 ; 
 36 : 19.04 ;  37 : 15.75 ;  38 : 13.29 ;  39 : 1.673 ;  40 : 5.828 ; 
 41 : 10.81 ;  42 : 9.098 ;  43 : 7.444 ;  44 : 22.45 ;  45 : 17.43 ; 
 46 : 1.654 ;  47 : 2.481 ;  49 : 3.308 ;  50 : 5.809 ;  51 : 14.06 ; 
 52 : 9.117 ;  53 : 6.617 ;  56 : 1.654 ;  58 : 1.673 ;  59 : 0.827 ; 
 60 : 1.654 ;  61 : 2.481 ;  62 : 5.001 ;  63 : 5.789 ;  64 : 10.79 ; 
 65 : 14.98 ;  68 : 10.83 ;  69 : 4.193 ;  70 : 4.962 ;  71 : 17.37 ; 
 72 : 13.23 ;  73 : 8.271 ;  74 : 8.271 ;  76 : 2.481 ;  77 : 1.654 ; 
 78 : 0.827 ;  81 : 0.827 ;  83 : 0.827 ;  84 : 7.444 ;  89 : 0.827 ; 
 90 : 1.654 ;  91 : 1.654 ;  92 : 15.71 ;  93 : 17.39 ;  95 : 4.962 ; 
 97 : 3.308 ;  98 : 5.077 ;  100 : 4.962 ;  101 : 10.75 ;  102 : 12.43 ; 
 103 : 0.827 ;  105 : 7.444 ;  106 : 2.481 ; 

Origin 17 
 1 : 0.827 ;  3 : 4.135 ;  5 : 0.827 ;  7 : 0.827 ;  8 : 0.846 ; 
 9 : 2.481 ;  10 : 0.846 ;  12 : 0.827 ;  13 : 3.308 ;  14 : 4.962 ; 
 15 : 3.308 ;  16 : 7.444 ;  18 : 5.809 ;  19 : 7.444 ;  20 : 0.827 ; 
 21 : 2.481 ;  24 : 1.654 ;  25 : 0.827 ;  28 : 0.827 ;  29 : 1.654 ; 
 32 : 3.327 ;  33 : 0.827 ;  34 : 1.654 ;  35 : 1.654 ;  36 : 0.827 ; 
 37 : 2.481 ;  38 : 0.827 ;  39 : 0.827 ;  40 : 0.846 ;  41 : 0.827 ; 
 43 : 2.481 ;  44 : 6.617 ;  45 : 3.385 ;  49 : 2.481 ;  50 : 0.827 ; 
 51 : 0.827 ;  52 : 0.827 ;  53 : 7.539 ;  56 : 0.827 ;  57 : 0.827 ; 
 58 : 0.827 ;  60 : 0.827 ;  63 : 0.827 ;  64 : 4.135 ;  65 : 1.654 ; 
 67 : 1.654 ;  68 : 1.654 ;  71 : 4.135 ;  72 : 4.135 ;  73 : 1.654 ; 
 74 : 2.481 ;  75 : 0.827 ;  76 : 0.827 ;  77 : 1.654 ;  90 : 1.654 ; 
 92 : 5.789 ;  93 : 3.308 ;  94 : 0.827 ;  97 : 0.827 ;  100 : 2.481 ; 
 101 : 4.981 ;  102 : 4.135 ;  105 : 0.827 ; 

Origin 18 
 1 : 9.098 ;  3 : 28.95 ;  5 : 6.617 ;  6 : 7.444 ;  7 : 2.481 ; 
 8 : 9.963 ;  9 : 8.271 ;  10 : 31.43 ;  11 : 13.23 ;  12 : 4.135 ; 
 13 : 19.06 ;  14 : 9.098 ;  15 : 42.18 ;  16 : 43.83 ;  17 : 36.51 ; 
 19 : 50.64 ;  20 : 23.23 ;  21 : 10.75 ;  22 : 0.827 ;  23 : 5.789 ; 
 24 : 5.789 ;  25 : 6.617 ;  26 : 3.308 ;  27 : 8.271 ;  28 : 7.444 ; 
 29 : 4.962 ;  30 : 6.617 ;  31 : 24 ;  32 : 8.271 ;  33 : 5.001 ; 
 34 : 15.73 ;  35 : 30.6 ;  36 : 16.58 ;  37 : 19.89 ;  38 : 4.154 ; 
 39 : 1.654 ;  40 : 4.135 ;  41 : 20.68 ;  42 : 14.08 ;  43 : 10.75 ; 
 44 : 26.5 ;  45 : 29.02 ;  46 : 9.925 ;  47 : 1.654 ;  48 : 0.827 ; 
 49 : 10.75 ;  50 : 11.64 ;  51 : 13.25 ;  52 : 20.85 ;  53 : 8.328 ; 
 58 : 5.789 ;  59 : 2.481 ;  60 : 2.481 ;  61 : 8.271 ;  62 : 10.75 ; 
 63 : 14.94 ;  64 : 28.22 ;  65 : 47.24 ;  66 : 0.827 ;  67 : 0.827 ; 
 68 : 3.308 ;  70 : 6.674 ;  71 : 28.12 ;  72 : 18.2 ;  73 : 22.33 ; 
 74 : 16.54 ;  75 : 13.23 ;  76 : 3.308 ;  77 : 9.098 ;  78 : 6.617 ; 
 80 : 1.654 ;  82 : 1.654 ;  84 : 7.444 ;  87 : 5.001 ;  91 : 7.444 ; 
 92 : 37.24 ;  93 : 24.04 ;  94 : 5.789 ;  95 : 18.23 ;  97 : 4.135 ; 
 98 : 1.654 ;  100 : 9.925 ;  101 : 23.16 ;  102 : 31.43 ;  104 : 1.654 ; 
 105 : 7.444 ;  106 : 0.827 ;  107 : 0.827 ;  108 : 0.827 ; 

Origin 19 
 1 : 25.68 ;  3 : 40.56 ;  5 : 2.481 ;  6 : 8.29 ;  7 : 2.481 ; 
 8 : 4.962 ;  9 : 4.962 ;  10 : 10.81 ;  11 : 12.41 ;  12 : 8.271 ; 
 13 : 24.83 ;  14 : 17.39 ;  15 : 29.93 ;  16 : 74.49 ;  17 : 81.55 ; 
 18 : 46.33 ;  20 : 25.83 ;  21 : 4.154 ;  23 : 11.62 ;  24 : 6.636 ; 
 25 : 6.636 ;  26 : 4.135 ;  27 : 2.481 ;  28 : 10.81 ;  29 : 12.41 ; 
 30 : 1.654 ;  31 : 12.43 ;  32 : 14.93 ;  33 : 9.944 ;  34 : 14.91 ; 
 35 : 21.5 ;  36 : 9.944 ;  37 : 35.56 ;  38 : 13.23 ;  39 : 1.673 ; 
 40 : 6.617 ;  41 : 12.43 ;  42 : 9.944 ;  43 : 9.098 ;  44 : 34.95 ; 
 45 : 22.37 ;  46 : 0.827 ;  48 : 3.346 ;  49 : 6.617 ;  50 : 3.308 ; 
 51 : 8.271 ;  52 : 7.444 ;  53 : 20.75 ;  55 : 3.308 ;  56 : 0.827 ; 
 57 : 4.962 ;  58 : 2.481 ;  59 : 3.308 ;  60 : 1.673 ;  61 : 7.444 ; 
 62 : 4.135 ;  63 : 6.617 ;  64 : 22.46 ;  65 : 22.41 ;  67 : 2.481 ; 
 68 : 7.444 ;  69 : 0.827 ;  70 : 13.29 ;  71 : 23.16 ;  72 : 31.43 ; 
 73 : 14.06 ;  74 : 39.7 ;  75 : 4.962 ;  76 : 5.789 ;  77 : 7.444 ; 
 78 : 9.925 ;  80 : 0.827 ;  81 : 0.827 ;  82 : 0.827 ;  84 : 16.54 ; 
 85 : 1.654 ;  87 : 2.481 ;  89 : 0.827 ;  90 : 4.962 ;  91 : 6.617 ; 
 92 : 38.05 ;  93 : 21.5 ;  94 : 8.271 ;  95 : 9.098 ;  96 : 1.654 ; 
 97 : 5.789 ;  98 : 4.962 ;  99 : 1.692 ;  100 : 10.77 ;  101 : 43.05 ; 
 102 : 40.62 ;  103 : 4.135 ;  104 : 0.827 ;  105 : 7.444 ;  106 : 0.827 ; 
 107 : 1.654 ; 

Origin 20 
 1 : 8.29 ;  3 : 22.33 ;  5 : 4.135 ;  6 : 2.481 ;  7 : 0.827 ; 
 8 : 3.308 ;  9 : 1.654 ;  10 : 3.308 ;  11 : 5.789 ;  12 : 2.481 ; 
 13 : 7.444 ;  14 : 5.828 ;  15 : 29.89 ;  16 : 44.7 ;  17 : 23.98 ; 
 18 : 33.97 ;  19 : 52.2 ;  21 : 3.327 ;  23 : 4.962 ;  24 : 3.327 ; 
 25 : 1.654 ;  27 : 0.827 ;  28 : 4.135 ;  29 : 4.135 ;  30 : 2.481 ; 
 31 : 5.789 ;  32 : 2.481 ;  33 : 2.5 ;  34 : 4.135 ;  35 : 18.2 ; 
 36 : 7.463 ;  37 : 7.482 ;  38 : 3.308 ;  39 : 0.846 ;  40 : 3.308 ; 
 41 : 6.617 ;  42 : 3.308 ;  43 : 3.308 ;  44 : 11.64 ;  45 : 10.77 ; 
 46 : 0.827 ;  47 : 0.827 ;  48 : 0.827 ;  49 : 1.654 ;  50 : 0.846 ; 
 51 : 6.617 ;  52 : 6.617 ;  53 : 2.481 ;  55 : 1.654 ;  56 : 3.346 ; 
 57 : 0.827 ;  58 : 1.654 ;  59 : 3.308 ;  60 : 0.846 ;  61 : 4.962 ; 
 62 : 2.481 ;  63 : 3.308 ;  64 : 5.789 ;  65 : 15 ;  68 : 2.481 ; 
 70 : 10.75 ;  71 : 18.2 ;  72 : 8.271 ;  73 : 25.64 ;  74 : 14.06 ; 
 75 : 2.481 ;  76 : 1.654 ;  77 : 1.654 ;  78 : 2.481 ;  82 : 0.827 ; 
 87 : 3.308 ;  89 : 0.827 ;  91 : 7.444 ;  92 : 26.47 ;  93 : 14.06 ; 
 95 : 3.308 ;  96 : 1.654 ;  97 : 0.827 ;  98 : 1.654 ;  100 : 4.135 ; 
 101 : 9.098 ;  102 : 21.5 ;  105 : 1.654 ; 

Origin 21 
 1 : 16.54 ;  3 : 99.27 ;  5 : 7.444 ;  6 : 8.271 ;  7 : 3.308 ; 
 8 : 11.6 ;  9 : 7.444 ;  10 : 11.58 ;  11 : 22.35 ;  12 : 2.481 ; 
 13 : 26.47 ;  14 : 15.71 ;  15 : 29.79 ;  16 : 67.03 ;  17 : 45.49 ; 
 18 : 39.74 ;  19 : 58.82 ;  20 : 11.58 ;  22 : 0.827 ;  23 : 4.962 ; 
 24 : 7.463 ;  25 : 3.327 ;  26 : 3.308 ;  27 : 3.308 ;  28 : 7.444 ; 
 29 : 5.789 ;  30 : 7.444 ;  31 : 28.12 ;  32 : 1.654 ;  33 : 4.981 ; 
 34 : 10.83 ;  35 : 23.98 ;  36 : 15.71 ;  37 : 19.87 ;  38 : 4.962 ; 
 39 : 1.654 ;  40 : 9.925 ;  41 : 5.789 ;  42 : 13.25 ;  43 : 9.098 ; 
 44 : 21.52 ;  45 : 14.93 ;  46 : 0.827 ;  49 : 8.309 ;  50 : 0.827 ; 
 51 : 4.962 ;  52 : 10.75 ;  53 : 9.925 ;  56 : 0.827 ;  57 : 3.308 ; 
 58 : 2.481 ;  59 : 6.617 ;  60 : 0.827 ;  61 : 4.135 ;  62 : 9.098 ; 
 63 : 9.925 ;  64 : 10.79 ;  65 : 19.89 ;  67 : 3.308 ;  68 : 4.962 ; 
 69 : 0.827 ;  70 : 12.41 ;  71 : 34.74 ;  72 : 23.16 ;  73 : 23.16 ; 
 74 : 31.49 ;  75 : 9.944 ;  76 : 6.617 ;  77 : 5.789 ;  80 : 0.827 ; 
 81 : 0.827 ;  82 : 0.827 ;  84 : 6.617 ;  87 : 0.827 ;  88 : 2.481 ; 
 89 : 0.827 ;  90 : 2.481 ;  91 : 12.43 ;  92 : 32.27 ;  93 : 36.41 ; 
 94 : 3.308 ;  95 : 6.617 ;  97 : 4.174 ;  98 : 1.654 ;  100 : 5.789 ; 
 101 : 29.77 ;  102 : 20.68 ;  103 : 1.654 ;  104 : 0.827 ;  105 : 8.271 ; 
 106 : 1.654 ; 

Origin 22 
 1 : 3.308 ;  3 : 0.827 ;  5 : 0.827 ;  6 : 5.001 ;  8 : 4.174 ; 
 10 : 8.271 ;  11 : 4.154 ;  12 : 3.308 ;  13 : 2.481 ;  14 : 0.846 ; 
 15 : 3.308 ;  16 : 3.308 ;  17 : 2.538 ;  18 : 0.827 ;  19 : 2.5 ; 
 20 : 0.827 ;  23 : 30.12 ;  24 : 79 ;  25 : 8.309 ;  26 : 1.654 ; 
 27 : 2.5 ;  28 : 6.636 ;  29 : 6.617 ;  30 : 1.654 ;  31 : 7.463 ; 
 32 : 6.655 ;  33 : 16.62 ;  34 : 23.27 ;  35 : 22.5 ;  36 : 14.94 ; 
 37 : 14.12 ;  38 : 17.56 ;  39 : 5.789 ;  40 : 4.135 ;  41 : 8.271 ; 
 42 : 4.135 ;  43 : 1.654 ;  44 : 16.54 ;  45 : 10.75 ;  46 : 4.962 ; 
 47 : 1.654 ;  48 : 0.827 ;  49 : 1.654 ;  50 : 2.481 ;  52 : 2.481 ; 
 53 : 1.654 ;  54 : 3.308 ;  57 : 0.827 ;  59 : 0.827 ;  62 : 0.827 ; 
 64 : 3.308 ;  65 : 1.654 ;  68 : 4.135 ;  69 : 4.231 ;  70 : 1.654 ; 
 71 : 4.135 ;  72 : 1.654 ;  73 : 1.654 ;  74 : 12.41 ;  75 : 11.71 ; 
 76 : 1.654 ;  77 : 4.962 ;  78 : 3.308 ;  81 : 0.827 ;  84 : 1.654 ; 
 85 : 0.827 ;  87 : 16.62 ;  92 : 3.308 ;  94 : 2.481 ;  95 : 0.827 ; 
 97 : 0.827 ;  98 : 9.982 ;  99 : 1.654 ;  100 : 0.827 ;  101 : 1.654 ; 
 102 : 9.944 ;  105 : 5.789 ; 

Origin 23 
 1 : 37.24 ;  3 : 48.8 ;  5 : 7.463 ;  6 : 33.25 ;  7 : 4.981 ; 
 8 : 44.08 ;  9 : 9.098 ;  10 : 70.43 ;  11 : 41.41 ;  12 : 28.14 ; 
 13 : 55.45 ;  14 : 8.29 ;  15 : 105.1 ;  16 : 68.53 ;  17 : 22.35 ; 
 18 : 58.62 ;  19 : 59.56 ;  20 : 4.962 ;  22 : 29.58 ;  24 : 523.6 ; 
 25 : 101.2 ;  26 : 19.06 ;  27 : 49.81 ;  28 : 73.01 ;  29 : 35.72 ; 
 30 : 17.44 ;  31 : 92.01 ;  32 : 58.87 ;  33 : 222.7 ;  34 : 215.2 ; 
 35 : 232.4 ;  36 : 153.1 ;  37 : 142 ;  38 : 49.85 ;  39 : 12.52 ; 
 40 : 32.26 ;  41 : 67.86 ;  42 : 69.51 ;  43 : 20.7 ;  44 : 251 ; 
 45 : 95.4 ;  46 : 5.789 ;  47 : 2.481 ;  48 : 2.5 ;  49 : 5.789 ; 
 50 : 22.41 ;  51 : 27.29 ;  52 : 14.06 ;  53 : 26.49 ;  55 : 4.962 ; 
 56 : 1.654 ;  57 : 2.481 ;  58 : 2.5 ;  59 : 0.827 ;  60 : 1.654 ; 
 61 : 5.789 ;  62 : 1.654 ;  63 : 14.89 ;  64 : 11.58 ;  65 : 13.23 ; 
 66 : 0.827 ;  68 : 39.27 ;  69 : 13.52 ;  70 : 22.66 ;  71 : 18.2 ; 
 72 : 12.41 ;  73 : 10.75 ;  74 : 180.5 ;  75 : 171.9 ;  76 : 25.64 ; 
 77 : 18.2 ;  78 : 28.18 ;  79 : 4.135 ;  80 : 7.444 ;  81 : 9.925 ; 
 82 : 0.827 ;  83 : 1.654 ;  84 : 33.08 ;  85 : 26.47 ;  86 : 0.827 ; 
 87 : 22.33 ;  88 : 7.444 ;  89 : 4.962 ;  90 : 9.098 ;  91 : 9.925 ; 
 92 : 29.77 ;  93 : 14.06 ;  94 : 8.328 ;  95 : 8.271 ;  96 : 1.654 ; 
 97 : 5.789 ;  98 : 73.02 ;  100 : 28.18 ;  101 : 81.07 ;  102 : 121.1 ; 
 103 : 6.617 ;  104 : 9.098 ;  105 : 36.39 ;  106 : 6.617 ;  107 : 4.962 ; 


Origin 24 
 1 : 26.49 ;  3 : 54.59 ;  5 : 7.463 ;  6 : 31.54 ;  7 : 7.444 ; 
 8 : 40.83 ;  9 : 13.31 ;  10 : 49.83 ;  11 : 43.99 ;  12 : 31.43 ; 
 13 : 41.41 ;  14 : 9.944 ;  15 : 88.59 ;  16 : 46.64 ;  17 : 22.33 ; 
 18 : 51.91 ;  19 : 72.23 ;  20 : 4.962 ;  21 : 1.654 ;  22 : 35.4 ; 
 23 : 338.1 ;  25 : 121.6 ;  26 : 20.73 ;  27 : 26.5 ;  28 : 54.06 ; 
 29 : 22.35 ;  30 : 21.52 ;  31 : 101.9 ;  32 : 73.86 ;  33 : 230.3 ; 
 34 : 213.1 ;  35 : 233.2 ;  36 : 131.7 ;  37 : 149.3 ;  38 : 64.95 ; 
 39 : 20.75 ;  40 : 35.56 ;  41 : 62.9 ;  42 : 38.08 ;  43 : 16.56 ; 
 44 : 210.3 ;  45 : 73.8 ;  46 : 10.02 ;  47 : 1.654 ;  49 : 10.75 ; 
 50 : 14.12 ;  51 : 19.89 ;  52 : 15.71 ;  53 : 31.43 ;  54 : 0.827 ; 
 55 : 5.001 ;  57 : 5.789 ;  58 : 2.481 ;  59 : 5.789 ;  60 : 0.827 ; 
 61 : 10.75 ;  62 : 22.39 ;  63 : 6.617 ;  64 : 16.64 ;  65 : 11.58 ; 
 68 : 32.56 ;  69 : 1.692 ;  70 : 29.04 ;  71 : 19.85 ;  72 : 23.16 ; 
 73 : 13.23 ;  74 : 127.4 ;  75 : 120.6 ;  76 : 23.98 ;  77 : 15.71 ; 
 78 : 36.39 ;  79 : 0.827 ;  80 : 5.789 ;  81 : 8.271 ;  82 : 0.827 ; 
 83 : 4.135 ;  84 : 25.64 ;  85 : 24.81 ;  86 : 0.827 ;  87 : 18.2 ; 
 88 : 5.789 ;  89 : 0.827 ;  90 : 15.71 ;  91 : 5.789 ;  92 : 24.81 ; 
 93 : 21.5 ;  94 : 15.81 ;  95 : 17.37 ;  96 : 0.827 ;  97 : 4.962 ; 
 98 : 25.91 ;  100 : 19.87 ;  101 : 65.36 ;  102 : 121.1 ;  103 : 4.962 ; 
 104 : 4.135 ;  105 : 33.08 ;  106 : 10.75 ;  107 : 2.481 ; 

Origin 25 
 1 : 23.2 ;  3 : 74.49 ;  5 : 7.463 ;  6 : 14.91 ;  7 : 3.366 ; 
 8 : 15.79 ;  9 : 3.308 ;  10 : 24 ;  11 : 13.23 ;  12 : 24 ; 
 13 : 32.29 ;  14 : 4.154 ;  15 : 32.29 ;  16 : 35.81 ;  17 : 15.71 ; 
 18 : 15.91 ;  19 : 17.48 ;  20 : 1.654 ;  21 : 0.827 ;  22 : 5.058 ; 
 23 : 307.2 ;  24 : 266.4 ;  26 : 38.29 ;  27 : 35.89 ;  28 : 57.77 ; 
 29 : 38.2 ;  30 : 13.27 ;  31 : 61.3 ;  32 : 29.79 ;  33 : 145.5 ; 
 34 : 96.63 ;  35 : 122.6 ;  36 : 75.43 ;  37 : 95.42 ;  38 : 30.79 ; 
 39 : 9.193 ;  40 : 14.08 ;  41 : 28.14 ;  42 : 48.03 ;  43 : 21.6 ; 
 44 : 122.5 ;  45 : 39.85 ;  46 : 3.308 ;  47 : 2.519 ;  48 : 3.308 ; 
 49 : 4.962 ;  50 : 14.89 ;  51 : 14.1 ;  52 : 13.25 ;  53 : 9.098 ; 
 55 : 1.654 ;  57 : 1.654 ;  58 : 0.827 ;  59 : 1.654 ;  60 : 3.308 ; 
 61 : 0.827 ;  62 : 4.962 ;  63 : 1.654 ;  64 : 10.02 ;  65 : 10.75 ; 
 67 : 4.174 ;  68 : 12.41 ;  69 : 5.923 ;  70 : 17.62 ;  71 : 14.06 ; 
 72 : 16.54 ;  73 : 3.308 ;  74 : 267.1 ;  75 : 119.5 ;  76 : 36.41 ; 
 77 : 16.54 ;  78 : 25.79 ;  79 : 1.654 ;  80 : 9.098 ;  81 : 8.271 ; 
 82 : 2.481 ;  84 : 23.16 ;  85 : 29.77 ;  87 : 28.2 ;  88 : 5.789 ; 
 89 : 0.827 ;  90 : 4.135 ;  91 : 14.06 ;  92 : 15.71 ;  93 : 7.444 ; 
 94 : 8.271 ;  95 : 9.925 ;  96 : 0.846 ;  97 : 2.481 ;  98 : 9.193 ; 
 100 : 10.75 ;  101 : 29.79 ;  102 : 62.97 ;  103 : 5.789 ;  104 : 1.654 ; 
 105 : 29.83 ;  106 : 4.962 ;  107 : 0.827 ; 

Origin 26 
 1 : 96.84 ;  3 : 219.2 ;  5 : 12.43 ;  6 : 36.49 ;  7 : 10.75 ; 
 8 : 27.33 ;  9 : 18.2 ;  10 : 33.14 ;  11 : 35.56 ;  12 : 12.41 ; 
 13 : 42.2 ;  14 : 14.91 ;  15 : 58.74 ;  16 : 31.47 ;  17 : 18.2 ; 
 18 : 25.7 ;  19 : 30.81 ;  20 : 4.962 ;  21 : 0.827 ;  22 : 8.29 ; 
 23 : 113.7 ;  24 : 138.3 ;  25 : 65.76 ;  27 : 64.99 ;  28 : 72.22 ; 
 29 : 84.59 ;  30 : 46.47 ;  31 : 66.17 ;  32 : 48.07 ;  33 : 42.41 ; 
 34 : 65.78 ;  35 : 95.98 ;  36 : 78.05 ;  37 : 91.21 ;  38 : 21.58 ; 
 39 : 18.2 ;  40 : 29.04 ;  41 : 36.54 ;  42 : 38.05 ;  43 : 13.23 ; 
 44 : 78.72 ;  45 : 32.26 ;  46 : 0.827 ;  47 : 3.308 ;  48 : 5.866 ; 
 49 : 13.27 ;  50 : 4.962 ;  51 : 14.06 ;  52 : 7.482 ;  53 : 11.58 ; 
 55 : 1.654 ;  57 : 1.654 ;  58 : 1.654 ;  59 : 2.481 ;  60 : 0.827 ; 
 61 : 4.135 ;  62 : 3.308 ;  63 : 4.135 ;  64 : 2.481 ;  65 : 7.444 ; 
 67 : 0.827 ;  68 : 8.271 ;  69 : 3.385 ;  70 : 18.27 ;  71 : 16.54 ; 
 72 : 15.71 ;  73 : 4.962 ;  74 : 376.9 ;  75 : 69.8 ;  76 : 52.95 ; 
 77 : 31.43 ;  78 : 33.08 ;  79 : 0.827 ;  80 : 3.308 ;  81 : 9.098 ; 
 82 : 6.617 ;  83 : 0.827 ;  84 : 51.28 ;  85 : 13.23 ;  87 : 23.98 ; 
 88 : 14.89 ;  89 : 0.827 ;  90 : 14.89 ;  91 : 2.481 ;  92 : 25.66 ; 
 93 : 20.68 ;  94 : 6.75 ;  95 : 10.75 ;  97 : 6.617 ;  98 : 8.271 ; 
 100 : 16.64 ;  101 : 50.45 ;  102 : 86.98 ;  103 : 2.481 ;  104 : 1.654 ; 
 105 : 39.78 ;  106 : 4.962 ;  107 : 4.135 ; 

Origin 27 
 1 : 65.38 ;  3 : 126.6 ;  5 : 9.098 ;  6 : 34.02 ;  7 : 6.655 ; 
 8 : 13.29 ;  9 : 11.58 ;  10 : 30.68 ;  11 : 33.97 ;  12 : 29.79 ; 
 13 : 23.2 ;  14 : 8.271 ;  15 : 61.2 ;  16 : 24.12 ;  17 : 31.43 ; 
 18 : 20.71 ;  19 : 19.91 ;  20 : 3.308 ;  21 : 3.308 ;  22 : 4.231 ; 
 23 : 173.7 ;  24 : 227.3 ;  25 : 80.66 ;  26 : 42.29 ;  28 : 69.03 ; 
 29 : 59.85 ;  30 : 33.16 ;  31 : 86.17 ;  32 : 62.14 ;  33 : 109 ; 
 34 : 85.7 ;  35 : 142.5 ;  36 : 84.44 ;  37 : 82.24 ;  38 : 42.31 ; 
 39 : 43.39 ;  40 : 33.93 ;  41 : 41.37 ;  42 : 38.05 ;  43 : 17.43 ; 
 44 : 126.7 ;  45 : 63.01 ;  46 : 11.6 ;  47 : 4.962 ;  48 : 9.212 ; 
 49 : 18.2 ;  50 : 9.944 ;  51 : 8.29 ;  52 : 11.58 ;  53 : 14.06 ; 
 54 : 0.827 ;  55 : 1.654 ;  57 : 2.481 ;  58 : 4.962 ;  59 : 4.135 ; 
 60 : 0.827 ;  61 : 2.481 ;  62 : 4.135 ;  63 : 14.06 ;  64 : 15.71 ; 
 65 : 14.93 ;  67 : 3.308 ;  68 : 13.35 ;  69 : 2.481 ;  70 : 12.48 ; 
 71 : 8.271 ;  72 : 15.71 ;  73 : 5.789 ;  74 : 273.9 ;  75 : 110.7 ; 
 76 : 40.53 ;  77 : 30.6 ;  78 : 38.18 ;  79 : 4.962 ;  80 : 9.925 ; 