<NUMBER OF ZONES>			110								
<NUMBER OF NODES>			1020								
<FIRST THRU NODE>			111								
<NUMBER OF LINKS>			2522	
<ORIGINAL HEADER>~ 	Init node 	Term node 	Capacity 	Length 	Free Flow Time 	B	Power	Speed limit 	Toll 	Type	;
<END OF METADATA>											


~	init_node	term_node	capacity	length	free_flow_time	b	power	speed	toll	link_type	;
	1	290	1	1.08333333333330000000	1.08333333333330000000	0.00000000000000000000E+00	0	0	0	9	;
	1	307	1	1.08333333333330000000	1.08333333333330000000	0.00000000000000000000E+00	0	0	0	9	;
	1	316	1	1.08333333333330000000	1.08333333333330000000	0.00000000000000000000E+00	0	0	0	9	;
	2	302	1	1.66666666666670000000	1.66666666666670000000	0.00000000000000000000E+00	0	0	0	9	;
	2	304	1	1.66666666666670000000	1.66666666666670000000	0.00000000000000000000E+00	0	0	0	9	;
	3	301	1	1.08333333333330000000	1.08333333333330000000	0.00000000000000000000E+00	0	0	0	9	;
	3	306	1	1.08333333333330000000	1.08333333333330000000	0.00000000000000000000E+00	0	0	0	9	;
	4	301	1	1.08333333333330000000	1.08333333333330000000	0.00000000000000000000E+00	0	0	0	9	;
	4	306	1	1.08333333333330000000	1.08333333333330000000	0.00000000000000000000E+00	0	0	0	9	;
	5	298	1	0.50000000000000000000	0.50000000000000000000	0.00000000000000000000E+00	0	0	0	9	;
	5	299	1	0.50000000000000000000	0.50000000000000000000	0.00000000000000000000E+00	0	0	0	9	;
	5	310	1	1.08333333333330000000	1.08333333333330000000	0.00000000000000000000E+00	0	0	0	9	;
	6	424	1	0.83333333333333000000	0.83333333333333000000	0.00000000000000000000E+00	0	0	0	9	;
	6	425	1	0.83333333333333000000	0.83333333333333000000	0.00000000000000000000E+00	0	0	0	9	;
	6	456	1	0.83333333333333000000	0.83333333333333000000	0.00000000000000000000E+00	0	0	0	9	;
	7	274	1	0.66666666666667000000	0.66666666666667000000	0.00000000000000000000E+00	0	0	0	9	;
	7	281	1	0.66666666666667000000	0.66666666666667000000	0.00000000000000000000E+00	0	0	0	9	;
	7	283	1	0.66666666666667000000	0.66666666666667000000	0.00000000000000000000E+00	0	0	0	9	;
	8	272	1	0.66666666666667000000	0.66666666666667000000	0.00000000000000000000E+00	0	0	0	9	;
	8	456	1	0.66666666666667000000	0.66666666666667000000	0.00000000000000000000E+00	0	0	0	9	;
	8	474	1	0.66666666666667000000	0.66666666666667000000	0.00000000000000000000E+00	0	0	0	9	;
	8	480	1	0.66666666666667000000	0.66666666666667000000	0.00000000000000000000E+00	0	0	0	9	;
	9	277	1	0.50000000000000000000	0.50000000000000000000	0.00000000000000000000E+00	0	0	0	9	;
	10	205	1	0.41666666666667000000	0.41666666666667000000	0.00000000000000000000E+00	0	0	0	9	;
	10	206	1	0.41666666666667000000	0.41666666666667000000	0.00000000000000000000E+00	0	0	0	9	;
	10	214	1	0.41666666666667000000	0.41666666666667000000	0.00000000000000000000E+00	0	0	0	9	;
	11	206	1	0.66666666666667000000	0.66666666666667000000	0.00000000000000000000E+00	0	0	0	9	;
	11	207	1	0.66666666666667000000	0.66666666666667000000	0.00000000000000000000E+00	0	0	0	9	;
	12	210	1	0.83333333333333000000	0.83333333333333000000	0.00000000000000000000E+00	0	0	0	9	;
	12	217	1	0.83333333333333000000	0.83333333333333000000	0.00000000000000000000E+00	0	0	0	9	;
	12	222	1	0.83333333333333000000	0.83333333333333000000	0.00000000000000000000E+00	0	0	0	9	;
	13	208	1	0.66666666666667000000	0.66666666666667000000	0.00000000000000000000E+00	0	0	0	9	;
	13	211	1	0.66666666666667000000	0.66666666666667000000	0.00000000000000000000E+00	0	0	0	9	;
	13	224	1	0.66666666666667000000	0.66666666666667000000	0.00000000000000000000E+00	0	0	0	9	;
	14	244	1	0.58333333333333000000	0.58333333333333000000	0.00000000000000000000E+00	0	0	0	9	;
	15	228	1	0.83333333333333000000	0.83333333333333000000	0.00000000000000000000E+00	0	0	0	9	;
	15	533	1	0.83333333333333000000	0.83333333333333000000	0.00000000000000000000E+00	0	0	0	9	;
	15	538	1	0.83333333333333000000	0.83333333333333000000	0.00000000000000000000E+00	0	0	0	9	;
	16	601	1	1.00000000000000000000	1.00000000000000000000	0.00000000000000000000E+00	0	0	0	9	;
	16	602	1	1.00000000000000000000	1.00000000000000000000	0.00000000000000000000E+00	0	0	0	9	;
	17	597	1	0.66666666666667000000	0.66666666666667000000	0.00000000000000000000E+00	0	0	0	9	;
	17	608	1	0.66666666666667000000	0.66666666666667000000	0.00000000000000000000E+00	0	0	0	9	;
	17	621	1	0.66666666666667000000	0.66666666666667000000	0.00000000000000000000E+00	0	0	0	9	;
	18	914	1	0.91666666666667000000	0.91666666666667000000	0.00000000000000000000E+00	0	0	0	9	;
	18	937	1	0.91666666666667000000	0.91666666666667000000	0.00000000000000000000E+00	0	0	0	9	;
	18	938	1	0.91666666666667000000	0.91666666666667000000	0.00000000000000000000E+00	0	0	0	9	;
	18	946	1	0.91666666666667000000	0.91666666666667000000	0.00000000000000000000E+00	0	0	0	9	;
	19	617	1	0.83333333333333000000	0.83333333333333000000	0.00000000000000000000E+00	0	0	0	9	;
	19	919	1	0.83333333333333000000	0.83333333333333000000	0.00000000000000000000E+00	0	0	0	9	;
	19	931	1	0.83333333333333000000	0.83333333333333000000	0.00000000000000000000E+00	0	0	0	9	;
	20	916	1	0.75000000000000000000	0.75000000000000000000	0.00000000000000000000E+00	0	0	0	9	;
	21	915	1	0.50000000000000000000	0.50000000000000000000	0.00000000000000000000E+00	0	0	0	9	;
	21	943	1	0.50000000000000000000	0.50000000000000000000	0.00000000000000000000E+00	0	0	0	9	;
	22	831	1	1.16666666666670000000	1.16666666666670000000	0.00000000000000000000E+00	0	0	0	9	;
	23	823	1	1.08333333333330000000	1.08333333333330000000	0.00000000000000000000E+00	0	0	0	9	;
	23	835	1	1.08333333333330000000	1.08333333333330000000	0.00000000000000000000E+00	0	0	0	9	;
	23	836	1	1.08333333333330000000	1.08333333333330000000	0.00000000000000000000E+00	0	0	0	9	;
	23	839	1	1.08333333333330000000	1.08333333333330000000	0.00000000000000000000E+00	0	0	0	9	;
	24	827	1	1.16666666666670000000	1.16666666666670000000	0.00000000000000000000E+00	0	0	0	9	;
	24	838	1	1.16666666666670000000	1.16666666666670000000	0.00000000000000000000E+00	0	0	0	9	;
	24	855	1	1.16666666666670000000	1.16666666666670000000	0.00000000000000000000E+00	0	0	0	9	;
	25	821	1	1.25000000000000000000	1.25000000000000000000	0.00000000000000000000E+00	0	0	0	9	;
	25	841	1	1.25000000000000000000	1.25000000000000000000	0.00000000000000000000E+00	0	0	0	9	;
	25	849	1	1.25000000000000000000	1.25000000000000000000	0.00000000000000000000E+00	0	0	0	9	;
	26	322	1	0.66666666666667000000	0.66666666666667000000	0.00000000000000000000E+00	0	0	0	9	;
	26	844	1	0.66666666666667000000	0.66666666666667000000	0.00000000000000000000E+00	0	0	0	9	;
	26	851	1	0.66666666666667000000	0.66666666666667000000	0.00000000000000000000E+00	0	0	0	9	;
	27	317	1	0.66666666666667000000	0.66666666666667000000	0.00000000000000000000E+00	0	0	0	9	;
	27	333	1	0.66666666666667000000	0.66666666666667000000	0.00000000000000000000E+00	0	0	0	9	;
	27	824	1	0.66666666666667000000	0.66666666666667000000	0.00000000000000000000E+00	0	0	0	9	;
	27	832	1	0.66666666666667000000	0.66666666666667000000	0.00000000000000000000E+00	0	0	0	9	;
	28	328	1	0.66666666666667000000	0.66666666666667000000	0.00000000000000000000E+00	0	0	0	9	;
	28	339	1	0.66666666666667000000	0.66666666666667000000	0.00000000000000000000E+00	0	0	0	9	;
	28	825	1	0.66666666666667000000	0.66666666666667000000	0.00000000000000000000E+00	0	0	0	9	;
	29	325	1	0.75000000000000000000	0.75000000000000000000	0.00000000000000000000E+00	0	0	0	9	;
	29	331	1	0.75000000000000000000	0.75000000000000000000	0.00000000000000000000E+00	0	0	0	9	;
	30	286	1	0.66666666666667000000	0.66666666666667000000	0.00000000000000000000E+00	0	0	0	9	;
	30	340	1	0.66666666666667000000	0.66666666666667000000	0.00000000000000000000E+00	0	0	0	9	;
	31	366	1	0.61666666666667000000	0.61666666666667000000	0.00000000000000000000E+00	0	0	0	9	;
	31	405	1	0.61666666666667000000	0.61666666666667000000	0.00000000000000000000E+00	0	0	0	9	;
	31	448	1	0.61666666666667000000	0.61666666666667000000	0.00000000000000000000E+00	0	0	0	9	;
	31	779	1	0.61666666666667000000	0.61666666666667000000	0.00000000000000000000E+00	0	0	0	9	;
	32	287	1	0.66666666666667000000	0.66666666666667000000	0.00000000000000000000E+00	0	0	0	9	;
	32	347	1	0.66666666666667000000	0.66666666666667000000	0.00000000000000000000E+00	0	0	0	9	;
	32	355	1	0.66666666666667000000	0.66666666666667000000	0.00000000000000000000E+00	0	0	0	9	;
	32	356	1	0.66666666666667000000	0.66666666666667000000	0.00000000000000000000E+00	0	0	0	9	;
	33	255	1	1.08333333333330000000	1.08333333333330000000	0.00000000000000000000E+00	0	0	0	9	;
	33	858	1	1.08333333333330000000	1.08333333333330000000	0.00000000000000000000E+00	0	0	0	9	;
	33	961	1	1.08333333333330000000	1.08333333333330000000	0.00000000000000000000E+00	0	0	0	9	;
	33	963	1	1.08333333333330000000	1.08333333333330000000	0.00000000000000000000E+00	0	0	0	9	;
	34	870	1	0.91666666666667000000	0.91666666666667000000	0.00000000000000000000E+00	0	0	0	9	;
	34	962	1	0.91666666666667000000	0.91666666666667000000	0.00000000000000000000E+00	0	0	0	9	;
	34	964	1	0.91666666666667000000	0.91666666666667000000	0.00000000000000000000E+00	0	0	0	9	;
	34	967	1	0.91666666666667000000	0.91666666666667000000	0.00000000000000000000E+00	0	0	0	9	;
	35	758	1	0.75000000000000000000	0.75000000000000000000	0.00000000000000000000E+00	0	0	0	9	;
	35	760	1	0.75000000000000000000	0.75000000000000000000	0.00000000000000000000E+00	0	0	0	9	;
	35	869	1	0.75000000000000000000	0.75000000000000000000	0.00000000000000000000E+00	0	0	0	9	;
	35	966	1	0.75000000000000000000	0.75000000000000000000	0.00000000000000000000E+00	0	0	0	9	;
	36	763	1	0.61666666666667000000	0.61666666666667000000	0.00000000000000000000E+00	0	0	0	9	;
	36	764	1	0.61666666666667000000	0.61666666666667000000	0.00000000000000000000E+00	0	0	0	9	;
	36	767	1	0.61666666666667000000	0.61666666666667000000	0.00000000000000000000E+00	0	0	0	9	;
	36	788	1	0.61666666666667000000	0.61666666666667000000	0.00000000000000000000E+00	0	0	0	9	;
	36	796	1	0.61666666666667000000	0.61666666666667000000	0.00000000000000000000E+00	0	0	0	9	;
	37	349	1	0.70000000000000000000	0.70000000000000000000	0.00000000000000000000E+00	0	0	0	9	;
	37	393	1	0.70000000000000000000	0.70000000000000000000	0.00000000000000000000E+00	0	0	0	9	;
	37	458	1	0.70000000000000000000	0.70000000000000000000	0.00000000000000000000E+00	0	0	0	9	;
	37	459	1	0.70000000000000000000	0.70000000000000000000	0.00000000000000000000E+00	0	0	0	9	;
	37	803	1	0.70000000000000000000	0.70000000000000000000	0.00000000000000000000E+00	0	0	0	9	;
	38	255	1	0.78333333333333000000	0.78333333333333000000	0.00000000000000000000E+00	0	0	0	9	;
	38	262	1	0.78333333333333000000	0.78333333333333000000	0.00000000000000000000E+00	0	0	0	9	;
	38	267	1	0.78333333333333000000	0.78333333333333000000	0.00000000000000000000E+00	0	0	0	9	;
	39	254	1	0.83333333333333000000	0.83333333333333000000	0.00000000000000000000E+00	0	0	0	9	;
	39	873	1	0.83333333333333000000	0.83333333333333000000	0.00000000000000000000E+00	0	0	0	9	;
	39	880	1	0.83333333333333000000	0.83333333333333000000	0.00000000000000000000E+00	0	0	0	9	;
	39	881	1	0.83333333333333000000	0.83333333333333000000	0.00000000000000000000E+00	0	0	0	9	;
	40	633	1	1.08333333333330000000	1.08333333333330000000	0.00000000000000000000E+00	0	0	0	9	;
	40	883	1	1.08333333333330000000	1.08333333333330000000	0.00000000000000000000E+00	0	0	0	9	;
	41	761	1	0.91666666666667000000	0.91666666666667000000	0.00000000000000000000E+00	0	0	0	9	;
	41	866	1	0.91666666666667000000	0.91666666666667000000	0.00000000000000000000E+00	0	0	0	9	;
	41	875	1	0.91666666666667000000	0.91666666666667000000	0.00000000000000000000E+00	0	0	0	9	;
	41	885	1	0.91666666666667000000	0.91666666666667000000	0.00000000000000000000E+00	0	0	0	9	;
	42	666	1	0.66666666666667000000	0.66666666666667000000	0.00000000000000000000E+00	0	0	0	9	;
	42	676	1	0.66666666666667000000	0.66666666666667000000	0.00000000000000000000E+00	0	0	0	9	;
	42	679	1	0.66666666666667000000	0.66666666666667000000	0.00000000000000000000E+00	0	0	0	9	;
	42	687	1	0.66666666666667000000	0.66666666666667000000	0.00000000000000000000E+00	0	0	0	9	;
	43	668	1	0.58333333333333000000	0.58333333333333000000	0.00000000000000000000E+00	0	0	0	9	;
	43	688	1	0.58333333333333000000	0.58333333333333000000	0.00000000000000000000E+00	0	0	0	9	;
	43	689	1	0.58333333333333000000	0.58333333333333000000	0.00000000000000000000E+00	0	0	0	9	;
	43	696	1	0.58333333333333000000	0.58333333333333000000	0.00000000000000000000E+00	0	0	0	9	;
	43	722	1	0.58333333333333000000	0.58333333333333000000	0.00000000000000000000E+00	0	0	0	9	;
	44	450	1	0.66666666666667000000	0.66666666666667000000	0.00000000000000000000E+00	0	0	0	9	;
	44	455	1	0.66666666666667000000	0.66666666666667000000	0.00000000000000000000E+00	0	0	0	9	;
	44	473	1	0.66666666666667000000	0.66666666666667000000	0.00000000000000000000E+00	0	0	0	9	;
	44	503	1	0.66666666666667000000	0.66666666666667000000	0.00000000000000000000E+00	0	0	0	9	;
	45	522	1	0.66666666666667000000	0.66666666666667000000	0.00000000000000000000E+00	0	0	0	9	;
	45	530	1	0.66666666666667000000	0.66666666666667000000	0.00000000000000000000E+00	0	0	0	9	;
	45	551	1	0.66666666666667000000	0.66666666666667000000	0.00000000000000000000E+00	0	0	0	9	;
	45	555	1	0.66666666666667000000	0.66666666666667000000	0.00000000000000000000E+00	0	0	0	9	;
	46	262	1	1.08333333333330000000	1.08333333333330000000	0.00000000000000000000E+00	0	0	0	9	;
	46	263	1	1.08333333333330000000	1.08333333333330000000	0.00000000000000000000E+00	0	0	0	9	;
	47	264	1	0.66666666666667000000	0.66666666666667000000	0.00000000000000000000E+00	0	0	0	9	;
	47	887	1	0.66666666666667000000	0.66666666666667000000	0.00000000000000000000E+00	0	0	0	9	;
	48	261	1	0.75000000000000000000	0.75000000000000000000	0.00000000000000000000E+00	0	0	0	9	;
	48	890	1	0.75000000000000000000	0.75000000000000000000	0.00000000000000000000E+00	0	0	0	9	;
	49	625	1	0.75000000000000000000	0.75000000000000000000	0.00000000000000000000E+00	0	0	0	9	;
	49	646	1	0.75000000000000000000	0.75000000000000000000	0.00000000000000000000E+00	0	0	0	9	;
	50	623	1	0.50000000000000000000	0.50000000000000000000	0.00000000000000000000E+00	0	0	0	9	;
	50	652	1	0.50000000000000000000	0.50000000000000000000	0.00000000000000000000E+00	0	0	0	9	;
	50	700	1	0.50000000000000000000	0.50000000000000000000	0.00000000000000000000E+00	0	0	0	9	;
	51	655	1	0.58333333333333000000	0.58333333333333000000	0.00000000000000000000E+00	0	0	0	9	;
	51	702	1	0.58333333333333000000	0.58333333333333000000	0.00000000000000000000E+00	0	0	0	9	;
	51	706	1	0.58333333333333000000	0.58333333333333000000	0.00000000000000000000E+00	0	0	0	9	;
	51	710	1	0.58333333333333000000	0.58333333333333000000	0.00000000000000000000E+00	0	0	0	9	;
	52	640	1	0.53333333333333000000	0.53333333333333000000	0.00000000000000000000E+00	0	0	0	9	;
	52	659	1	0.53333333333333000000	0.53333333333333000000	0.00000000000000000000E+00	0	0	0	9	;
	52	699	1	0.53333333333333000000	0.53333333333333000000	0.00000000000000000000E+00	0	0	0	9	;
	52	714	1	0.53333333333333000000	0.53333333333333000000	0.00000000000000000000E+00	0	0	0	9	;
	53	525	1	0.50000000000000000000	0.50000000000000000000	0.00000000000000000000E+00	0	0	0	9	;
	53	585	1	0.50000000000000000000	0.50000000000000000000	0.00000000000000000000E+00	0	0	0	9	;
	53	664	1	0.50000000000000000000	0.50000000000000000000	0.00000000000000000000E+00	0	0	0	9	;
	54	979	1	0.83333333333333000000	0.83333333333333000000	0.00000000000000000000E+00	0	0	0	9	;
	55	251	1	0.63333333333333000000	0.63333333333333000000	0.00000000000000000000E+00	0	0	0	9	;
	55	891	1	0.63333333333333000000	0.63333333333333000000	0.00000000000000000000E+00	0	0	0	9	;
	55	979	1	0.63333333333333000000	0.63333333333333000000	0.00000000000000000000E+00	0	0	0	9	;
	56	889	1	0.50000000000000000000	0.50000000000000000000	0.00000000000000000000E+00	0	0	0	9	;
	57	889	1	0.53333333333333000000	0.53333333333333000000	0.00000000000000000000E+00	0	0	0	9	;
	57	992	1	0.53333333333333000000	0.53333333333333000000	0.00000000000000000000E+00	0	0	0	9	;
	57	1003	1	0.53333333333333000000	0.53333333333333000000	0.00000000000000000000E+00	0	0	0	9	;
	58	627	1	0.53333333333333000000	0.53333333333333000000	0.00000000000000000000E+00	0	0	0	9	;
	58	888	1	0.53333333333333000000	0.53333333333333000000	0.00000000000000000000E+00	0	0	0	9	;
	59	889	1	0.50000000000000000000	0.50000000000000000000	0.00000000000000000000E+00	0	0	0	9	;
	59	986	1	0.50000000000000000000	0.50000000000000000000	0.00000000000000000000E+00	0	0	0	9	;
	60	893	1	0.41666666666667000000	0.41666666666667000000	0.00000000000000000000E+00	0	0	0	9	;
	60	896	1	0.41666666666667000000	0.41666666666667000000	0.00000000000000000000E+00	0	0	0	9	;
	60	900	1	0.41666666666667000000	0.41666666666667000000	0.00000000000000000000E+00	0	0	0	9	;
	61	624	1	0.58333333333333000000	0.58333333333333000000	0.00000000000000000000E+00	0	0	0	9	;
	61	630	1	0.58333333333333000000	0.58333333333333000000	0.00000000000000000000E+00	0	0	0	9	;
	61	642	1	0.58333333333333000000	0.58333333333333000000	0.00000000000000000000E+00	0	0	0	9	;
	62	629	1	0.66666666666667000000	0.66666666666667000000	0.00000000000000000000E+00	0	0	0	9	;
	62	637	1	0.66666666666667000000	0.66666666666667000000	0.00000000000000000000E+00	0	0	0	9	;
	62	653	1	0.66666666666667000000	0.66666666666667000000	0.00000000000000000000E+00	0	0	0	9	;
	63	902	1	0.53333333333333000000	0.53333333333333000000	0.00000000000000000000E+00	0	0	0	9	;
	63	908	1	0.53333333333333000000	0.53333333333333000000	0.00000000000000000000E+00	0	0	0	9	;
	63	947	1	0.53333333333333000000	0.53333333333333000000	0.00000000000000000000E+00	0	0	0	9	;
	64	632	1	0.75000000000000000000	0.75000000000000000000	0.00000000000000000000E+00	0	0	0	9	;
	64	923	1	0.75000000000000000000	0.75000000000000000000	0.00000000000000000000E+00	0	0	0	9	;
	64	925	1	0.75000000000000000000	0.75000000000000000000	0.00000000000000000000E+00	0	0	0	9	;
	65	921	1	0.86666666666667000000	0.86666666666667000000	0.00000000000000000000E+00	0	0	0	9	;
	65	926	1	0.86666666666667000000	0.86666666666667000000	0.00000000000000000000E+00	0	0	0	9	;
	65	936	1	0.86666666666667000000	0.86666666666667000000	0.00000000000000000000E+00	0	0	0	9	;
	66	998	1	0.58333333333333000000	0.58333333333333000000	0.00000000000000000000E+00	0	0	0	9	;
	67	994	1	0.83333333333333000000	0.83333333333333000000	0.00000000000000000000E+00	0	0	0	9	;
	67	995	1	0.83333333333333000000	0.83333333333333000000	0.00000000000000000000E+00	0	0	0	9	;
	67	996	1	0.83333333333333000000	0.83333333333333000000	0.00000000000000000000E+00	0	0	0	9	;
	68	986	1	0.95000000000000000000	0.95000000000000000000	0.00000000000000000000E+00	0	0	0	9	;
	68	1002	1	0.95000000000000000000	0.95000000000000000000	0.00000000000000000000E+00	0	0	0	9	;
	68	1003	1	0.95000000000000000000	0.95000000000000000000	0.00000000000000000000E+00	0	0	0	9	;
	69	982	1	0.58333333333333000000	0.58333333333333000000	0.00000000000000000000E+00	0	0	0	9	;
	69	985	1	0.58333333333333000000	0.58333333333333000000	0.00000000000000000000E+00	0	0	0	9	;
	70	904	1	0.83333333333333000000	0.83333333333333000000	0.00000000000000000000E+00	0	0	0	9	;
	70	959	1	0.83333333333333000000	0.83333333333333000000	0.00000000000000000000E+00	0	0	0	9	;
	70	960	1	0.83333333333333000000	0.83333333333333000000	0.00000000000000000000E+00	0	0	0	9	;
	70	983	1	0.83333333333333000000	0.83333333333333000000	0.00000000000000000000E+00	0	0	0	9	;
	71	949	1	0.83333333333333000000	0.83333333333333000000	0.00000000000000000000E+00	0	0	0	9	;
	71	958	1	0.83333333333333000000	0.83333333333333000000	0.00000000000000000000E+00	0	0	0	9	;
	71	985	1	0.83333333333333000000	0.83333333333333000000	0.00000000000000000000E+00	0	0	0	9	;
	72	951	1	0.91666666666667000000	0.91666666666667000000	0.00000000000000000000E+00	0	0	0	9	;
	72	957	1	0.91666666666667000000	0.91666666666667000000	0.00000000000000000000E+00	0	0	0	9	;
	73	928	1	0.58333333333333000000	0.58333333333333000000	0.00000000000000000000E+00	0	0	0	9	;
	73	940	1	0.58333333333333000000	0.58333333333333000000	0.00000000000000000000E+00	0	0	0	9	;
	74	313	1	0.83333333333333000000	0.83333333333333000000	0.00000000000000000000E+00	0	0	0	9	;
	74	322	1	0.83333333333333000000	0.83333333333333000000	0.00000000000000000000E+00	0	0	0	9	;
	74	842	1	0.83333333333333000000	0.83333333333333000000	0.00000000000000000000E+00	0	0	0	9	;
	74	321	1	0.83333333333333000000	0.83333333333333000000	0.00000000000000000000E+00	0	0	0	9	;
	74	1020	1	0.83333333333333000000	0.83333333333333000000	0.00000000000000000000E+00	0	0	0	9	;
	75	848	1	0.83333333333333000000	0.83333333333333000000	0.00000000000000000000E+00	0	0	0	9	;
	75	849	1	0.83333333333333000000	0.83333333333333000000	0.00000000000000000000E+00	0	0	0	9	;
	76	304	1	0.83333333333333000000	0.83333333333333000000	0.00000000000000000000E+00	0	0	0	9	;
	76	849	1	0.83333333333333000000	0.83333333333333000000	0.00000000000000000000E+00	0	0	0	9	;
	76	322	1	0.83333333333333000000	0.83333333333333000000	0.00000000000000000000E+00	0	0	0	9	;
	77	849	1	0.83333333333333000000	0.83333333333333000000	0.00000000000000000000E+00	0	0	0	9	;
	77	322	1	0.83333333333333000000	0.83333333333333000000	0.00000000000000000000E+00	0	0	0	9	;
	78	848	1	0.83333333333333000000	0.83333333333333000000	0.00000000000000000000E+00	0	0	0	9	;
	78	839	1	0.83333333333333000000	0.83333333333333000000	0.00000000000000000000E+00	0	0	0	9	;
	79	304	1	0.83333333333333000000	0.83333333333333000000	0.00000000000000000000E+00	0	0	0	9	;
	79	313	1	0.83333333333333000000	0.83333333333333000000	0.00000000000000000000E+00	0	0	0	9	;
	80	304	1	0.83333333333333000000	0.83333333333333000000	0.00000000000000000000E+00	0	0	0	9	;
	80	313	1	0.83333333333333000000	0.83333333333333000000	0.00000000000000000000E+00	0	0	0	9	;
	81	848	1	0.83333333333333000000	0.83333333333333000000	0.00000000000000000000E+00	0	0	0	9	;
	81	322	1	0.83333333333333000000	0.83333333333333000000	0.00000000000000000000E+00	0	0	0	9	;
	81	247	1	0.83333333333333000000	0.83333333333333000000	0.00000000000000000000E+00	0	0	0	9	;
	82	848	1	0.83333333333333000000	0.83333333333333000000	0.00000000000000000000E+00	0	0	0	9	;
	82	247	1	0.83333333333333000000	0.83333333333333000000	0.00000000000000000000E+00	0	0	0	9	;
	82	322	1	0.83333333333333000000	0.83333333333333000000	0.00000000000000000000E+00	0	0	0	9	;
	83	848	1	0.83333333333333000000	0.83333333333333000000	0.00000000000000000000E+00	0	0	0	9	;
	83	247	1	0.83333333333333000000	0.83333333333333000000	0.00000000000000000000E+00	0	0	0	9	;
	83	322	1	0.83333333333333000000	0.83333333333333000000	0.00000000000000000000E+00	0	0	0	9	;
	84	313	1	0.83333333333333000000	0.83333333333333000000	0.00000000000000000000E+00	0	0	0	9	;
	85	304	1	0.83333333333333000000	0.83333333333333000000	0.00000000000000000000E+00	0	0	0	9	;
	85	849	1	0.83333333333333000000	0.83333333333333000000	0.00000000000000000000E+00	0	0	0	9	;
	85	322	1	0.83333333333333000000	0.83333333333333000000	0.00000000000000000000E+00	0	0	0	9	;
	85	313	1	0.83333333333333000000	0.83333333333333000000	0.00000000000000000000E+00	0	0	0	9	;
	86	849	1	0.83333333333333000000	0.83333333333333000000	0.00000000000000000000E+00	0	0	0	9	;
	86	322	1	0.83333333333333000000	0.83333333333333000000	0.00000000000000000000E+00	0	0	0	9	;
	86	313	1	0.83333333333333000000	0.83333333333333000000	0.00000000000000000000E+00	0	0	0	9	;
	87	322	1	0.83333333333333000000	0.83333333333333000000	0.00000000000000000000E+00	0	0	0	9	;
	87	849	1	0.83333333333333000000	0.83333333333333000000	0.00000000000000000000E+00	0	0	0	9	;
	88	322	1	0.83333333333333000000	0.83333333333333000000	0.00000000000000000000E+00	0	0	0	9	;
	88	313	1	0.83333333333333000000	0.83333333333333000000	0.00000000000000000000E+00	0	0	0	9	;
	89	313	1	0.83333333333333000000	0.83333333333333000000	0.00000000000000000000E+00	0	0	0	9	;
	90	304	1	0.83333333333333000000	0.83333333333333000000	0.00000000000000000000E+00	0	0	0	9	;
	90	322	1	0.83333333333333000000	0.83333333333333000000	0.00000000000000000000E+00	0	0	0	9	;
	90	321	1	0.83333333333333000000	0.83333333333333000000	0.00000000000000000000E+00	0	0	0	9	;
	90	313	1	0.83333333333333000000	0.83333333333333000000	0.00000000000000000000E+00	0	0	0	9	;
	91	1010	1	0.83333333333333000000	0.83333333333333000000	0.00000000000000000000E+00	0	0	0	9	;
	91	954	1	0.83333333333333000000	0.83333333333333000000	0.00000000000000000000E+00	0	0	0	9	;
	91	1005	1	0.83333333333333000000	0.83333333333333000000	0.00000000000000000000E+00	0	0	0	9	;
	92	1006	1	0.83333333333333000000	0.83333333333333000000	0.00000000000000000000E+00	0	0	0	9	;
	92	1005	1	0.83333333333333000000	0.83333333333333000000	0.00000000000000000000E+00	0	0	0	9	;
	93	1006	1	0.83333333333333000000	0.83333333333333000000	0.00000000000000000000E+00	0	0	0	9	;
	93	1005	1	0.83333333333333000000	0.83333333333333000000	0.00000000000000000000E+00	0	0	0	9	;
	94	263	1	0.83333333333333000000	0.83333333333333000000	0.00000000000000000000E+00	0	0	0	9	;
	94	999	1	0.83333333333333000000	0.83333333333333000000	0.00000000000000000000E+00	0	0	0	9	;
	95	988	1	0.83333333333333000000	0.83333333333333000000	0.00000000000000000000E+00	0	0	0	9	;
	96	1005	1	0.83333333333333000000	0.83333333333333000000	0.00000000000000000000E+00	0	0	0	9	;
	96	1006	1	0.83333333333333000000	0.83333333333333000000	0.00000000000000000000E+00	0	0	0	9	;
	97	999	1	0.83333333333333000000	0.83333333333333000000	0.00000000000000000000E+00	0	0	0	9	;
	98	1009	1	0.83333333333333000000	0.83333333333333000000	0.00000000000000000000E+00	0	0	0	9	;
	99	1006	1	0.83333333333333000000	0.83333333333333000000	0.00000000000000000000E+00	0	0	0	9	;
	99	1005	1	0.83333333333333000000	0.83333333333333000000	0.00000000000000000000E+00	0	0	0	9	;
	100	1006	1	0.83333333333333000000	0.83333333333333000000	0.00000000000000000000E+00	0	0	0	9	;
	100	1007	1	0.83333333333333000000	0.83333333333333000000	0.00000000000000000000E+00	0	0	0	9	;
	101	263	1	0.83333333333333000000	0.83333333333333000000	0.00000000000000000000E+00	0	0	0	9	;
	102	1009	1	0.83333333333333000000	0.83333333333333000000	0.00000000000000000000E+00	0	0	0	9	;
	103	849	1	0.83333333333333000000	0.83333333333333000000	0.00000000000000000000E+00	0	0	0	9	;
	104	849	1	0.83333333333333000000	0.83333333333333000000	0.00000000000000000000E+00	0	0	0	9	;
	105	313	1	0.83333333333333000000	0.83333333333333000000	0.00000000000000000000E+00	0	0	0	9	;
	106	849	1	0.83333333333333000000	0.83333333333333000000	0.00000000000000000000E+00	0	0	0	9	;
	107	849	1	0.83333333333333000000	0.83333333333333000000	0.00000000000000000000E+00	0	0	0	9	;
	107	313	1	0.83333333333333000000	0.83333333333333000000	0.00000000000000000000E+00	0	0	0	9	;
	108	849	1	0.83333333333333000000	0.83333333333333000000	0.00000000000000000000E+00	0	0	0	9	;
	109	849	1	0.83333333333333000000	0.83333333333333000000	0.00000000000000000000E+00	0	0	0	9	;
	110	999	1	0.83333333333333000000	0.83333333333333000000	0.00000000000000000000E+00	0	0	0	9	;
	201	456	1	1.00000000000000000000	1.00000000000000000000	4.30303824524490000000E-17	4.603	0	0	1	;
	202	204	1	0.18666666666667000000	0.18666666666667000000	1.95099977044379000000E-18	4.446	0	0	1	;
	203	456	1	0.18666666666667000000	0.18666666666667000000	1.95099977044379000000E-18	4.446	0	0	1	;
	204	203	1	0.17333333333333000000	0.17333333333333000000	1.95099977044388000000E-18	4.446	0	0	1	;
	205	206	1	0.26666666666667000000	0.26666666666667000000	1.95099977044381000000E-18	4.446	0	0	1	;
	205	214	1	0.42857142857143000000	0.42857142857143000000	1.08730605986898000000E-18	4.924	0	0	1	;
	205	215	1	0.51428571428571000000	0.51428571428571000000	3.26239627485511000000E-18	4.924	0	0	1	;
	205	10	1	0.41666666666667000000	0.41666666666667000000	0.00000000000000000000E+00	0	0	0	9	;
	206	213	1	0.20000000000000000000	0.20000000000000000000	1.95099977044385000000E-18	4.446	0	0	1	;
	206	10	1	0.41666666666667000000	0.41666666666667000000	0.00000000000000000000E+00	0	0	0	9	;
	206	11	1	0.66666666666667000000	0.66666666666667000000	0.00000000000000000000E+00	0	0	0	9	;
	206	486	1	0.26666666666667000000	0.26666666666667000000	1.95099977044381000000E-18	4.446	0	0	1	;
	207	201	1	0.78000000000000000000	0.78000000000000000000	1.04572207534265000000E-15	4.603	0	0	1	;
	207	209	1	0.24000000000000000000	0.24000000000000000000	3.26239627485500000000E-18	4.924	0	0	1	;
	207	215	1	0.41142857142857000000	0.41142857142857000000	3.26239627485505000000E-18	4.924	0	0	1	;
	207	11	1	0.66666666666667000000	0.66666666666667000000	0.00000000000000000000E+00	0	0	0	9	;
	208	209	1	1.06285714285710000000	1.06285714285710000000	3.26239627485516000000E-18	4.924	0	0	1	;
	208	211	1	0.96000000000000000000	0.96000000000000000000	1.95099977044385000000E-18	4.446	0	0	1	;
	208	273	1	0.22666666666667000000	0.22666666666667000000	1.95099977044378000000E-18	4.446	0	0	1	;
	208	277	1	0.68571428571429000000	0.68571428571429000000	3.58162497562477000000E-20	4.924	0	0	1	;
	208	13	1	0.66666666666667000000	0.66666666666667000000	0.00000000000000000000E+00	0	0	0	9	;
	209	207	1	0.24000000000000000000	0.24000000000000000000	3.26239627485500000000E-18	4.924	0	0	1	;
	209	208	1	1.06285714285710000000	1.06285714285710000000	3.26239627485516000000E-18	4.924	0	0	1	;
	210	211	1	0.57333333333333000000	0.57333333333333000000	4.25242418059014000000E-17	4.446	0	0	1	;
	210	212	1	0.56000000000000000000	0.56000000000000000000	3.74403143351196000000E-16	4.603	0	0	1	;
	210	12	1	0.83333333333333000000	0.83333333333333000000	0.00000000000000000000E+00	0	0	0	9	;
	210	469	1	0.66666666666667000000	0.66666666666667000000	4.25242418059018000000E-17	4.446	0	0	1	;
	211	208	1	0.96000000000000000000	0.96000000000000000000	1.95099977044385000000E-18	4.446	0	0	1	;
	211	210	1	0.57333333333333000000	0.57333333333333000000	4.25242418059014000000E-17	4.446	0	0	1	;
	211	233	1	0.48000000000000000000	0.48000000000000000000	1.54063023337454000000E-17	4.603	0	0	1	;
	211	237	1	0.29142857142857000000	0.29142857142857000000	3.58162497562472000000E-20	4.924	0	0	1	;
	211	13	1	0.66666666666667000000	0.66666666666667000000	0.00000000000000000000E+00	0	0	0	9	;
	212	209	1	0.56000000000000000000	0.56000000000000000000	3.74403143351196000000E-16	4.603	0	0	1	;
	213	214	1	0.20000000000000000000	0.20000000000000000000	7.23427977530600000000E-19	4.446	0	0	1	;